                                  USG-TRANSPORT USG-TRANSPORT 
       FURTHER  DEVELOPMENTS BASED ON MODFLOW-USG
                      VERSION USG-TRANSPORT VERSION 2.02.1

 LIST FILE: henryusgu2.list
                         UNIT    2

 OPENING henryusgu2.disu
 FILE TYPE:DISU   UNIT   11   STATUS:OLD    
 FORMAT:FORMATTED              ACCESS:SEQUENTIAL          

 OPENING henryusgu2.bas
 FILE TYPE:BAS6   UNIT   13   STATUS:OLD    
 FORMAT:FORMATTED              ACCESS:SEQUENTIAL          

 OPENING henryusgu2.lpf
 FILE TYPE:LPF   UNIT   15   STATUS:OLD    
 FORMAT:FORMATTED              ACCESS:SEQUENTIAL          

 OPENING henryusgu2.oc
 FILE TYPE:OC   UNIT   14   STATUS:OLD    
 FORMAT:FORMATTED              ACCESS:SEQUENTIAL          

 OPENING henryusgu2.sms
 FILE TYPE:SMS   UNIT   32   STATUS:OLD    
 FORMAT:FORMATTED              ACCESS:SEQUENTIAL          

 OPENING henryusgu2.wel
 FILE TYPE:WEL   UNIT   20   STATUS:OLD    
 FORMAT:FORMATTED              ACCESS:SEQUENTIAL          

 OPENING henryusgu2.bct
 FILE TYPE:BCT   UNIT   35   STATUS:OLD    
 FORMAT:FORMATTED              ACCESS:SEQUENTIAL          

 OPENING henryusgu2.ddf
 FILE TYPE:DDF   UNIT   36   STATUS:OLD    
 FORMAT:FORMATTED              ACCESS:SEQUENTIAL          

 OPENING henryusgu2.ghb
 FILE TYPE:GHB   UNIT   23   STATUS:OLD    
 FORMAT:FORMATTED              ACCESS:SEQUENTIAL          

 OPENING henryusgu2.cbc
 FILE TYPE:DATA(BINARY)   UNIT   53   STATUS:REPLACE
 FORMAT:BINARY                 ACCESS:SEQUENTIAL          

 OPENING henryusgu2.hds
 FILE TYPE:DATA(BINARY)   UNIT   51   STATUS:REPLACE
 FORMAT:BINARY                 ACCESS:SEQUENTIAL          

 OPENING henryusgu2.con
 FILE TYPE:DATA(BINARY)   UNIT   52   STATUS:REPLACE
 FORMAT:BINARY                 ACCESS:SEQUENTIAL          

 BAS -- BASIC PACKAGEUSG-TRANSPORT USG-TRANSPORT VERSION 2.02.1             INPUT READ FROM UNIT   13
 
 # BAS6 package for MODFLOW-USG generated by Flopy 3.6.0                         
 THE FREE FORMAT OPTION HAS BEEN SELECTED
 THE UNSTRUCTURED GRID OPTION HAS BEEN SELECTED

 DIS -- UNSTRUCTURED GRID DISCRETIZATION PACKAGE, VERSION 1 : 5/17/2010 - INPUT READ FROM UNIT   11
 # DISU package for MODFLOW-USG generated by Flopy 3.6.0
       3200 NODES        40 NLAY     15760 NJAG  VERT. SUBDISCRETIZATION INDEX, IVSD =  0
 INDEX FOR INPUT OF UNSTRUCTURED, FINITE-VOLUME CONNECTIVITY INFORMATION, IDSYMRD =   0
    2 STRESS PERIOD(S) IN SIMULATION
 MODEL TIME UNIT IS DAYS
 MODEL LENGTH UNIT IS METERS
  Confining bed flag for each layer:
   0   0   0   0   0   0   0   0   0   0   0   0   0   0   0   0   0   0   0   0
   0   0   0   0   0   0   0   0   0   0   0   0   0   0   0   0   0   0   0   0

 DIS -- UNSTRUCTURED GRID DISCRETIZATION PACKAGE, VERSION 1 : 5/17/2010 - INPUT READ FROM UNIT   11



             NO. OF NODES PER LAYER
 READING ON UNIT   11 WITH FORMAT: (40I10)             



                                TOP FOR LAYER   1
 READING ON UNIT   11 WITH FORMAT: (80E15.6)           



                                TOP FOR LAYER   2
 READING ON UNIT   11 WITH FORMAT: (80E15.6)           



                                TOP FOR LAYER   3
 READING ON UNIT   11 WITH FORMAT: (80E15.6)           



                                TOP FOR LAYER   4
 READING ON UNIT   11 WITH FORMAT: (80E15.6)           



                                TOP FOR LAYER   5
 READING ON UNIT   11 WITH FORMAT: (80E15.6)           



                                TOP FOR LAYER   6
 READING ON UNIT   11 WITH FORMAT: (80E15.6)           



                                TOP FOR LAYER   7
 READING ON UNIT   11 WITH FORMAT: (80E15.6)           



                                TOP FOR LAYER   8
 READING ON UNIT   11 WITH FORMAT: (80E15.6)           



                                TOP FOR LAYER   9
 READING ON UNIT   11 WITH FORMAT: (80E15.6)           



                                TOP FOR LAYER  10
 READING ON UNIT   11 WITH FORMAT: (80E15.6)           



                                TOP FOR LAYER  11
 READING ON UNIT   11 WITH FORMAT: (80E15.6)           



                                TOP FOR LAYER  12
 READING ON UNIT   11 WITH FORMAT: (80E15.6)           



                                TOP FOR LAYER  13
 READING ON UNIT   11 WITH FORMAT: (80E15.6)           



                                TOP FOR LAYER  14
 READING ON UNIT   11 WITH FORMAT: (80E15.6)           



                                TOP FOR LAYER  15
 READING ON UNIT   11 WITH FORMAT: (80E15.6)           



                                TOP FOR LAYER  16
 READING ON UNIT   11 WITH FORMAT: (80E15.6)           



                                TOP FOR LAYER  17
 READING ON UNIT   11 WITH FORMAT: (80E15.6)           



                                TOP FOR LAYER  18
 READING ON UNIT   11 WITH FORMAT: (80E15.6)           



                                TOP FOR LAYER  19
 READING ON UNIT   11 WITH FORMAT: (80E15.6)           



                                TOP FOR LAYER  20
 READING ON UNIT   11 WITH FORMAT: (80E15.6)           



                                TOP FOR LAYER  21
 READING ON UNIT   11 WITH FORMAT: (80E15.6)           



                                TOP FOR LAYER  22
 READING ON UNIT   11 WITH FORMAT: (80E15.6)           



                                TOP FOR LAYER  23
 READING ON UNIT   11 WITH FORMAT: (80E15.6)           



                                TOP FOR LAYER  24
 READING ON UNIT   11 WITH FORMAT: (80E15.6)           



                                TOP FOR LAYER  25
 READING ON UNIT   11 WITH FORMAT: (80E15.6)           



                                TOP FOR LAYER  26
 READING ON UNIT   11 WITH FORMAT: (80E15.6)           



                                TOP FOR LAYER  27
 READING ON UNIT   11 WITH FORMAT: (80E15.6)           



                                TOP FOR LAYER  28
 READING ON UNIT   11 WITH FORMAT: (80E15.6)           



                                TOP FOR LAYER  29
 READING ON UNIT   11 WITH FORMAT: (80E15.6)           



                                TOP FOR LAYER  30
 READING ON UNIT   11 WITH FORMAT: (80E15.6)           



                                TOP FOR LAYER  31
 READING ON UNIT   11 WITH FORMAT: (80E15.6)           



                                TOP FOR LAYER  32
 READING ON UNIT   11 WITH FORMAT: (80E15.6)           



                                TOP FOR LAYER  33
 READING ON UNIT   11 WITH FORMAT: (80E15.6)           



                                TOP FOR LAYER  34
 READING ON UNIT   11 WITH FORMAT: (80E15.6)           



                                TOP FOR LAYER  35
 READING ON UNIT   11 WITH FORMAT: (80E15.6)           



                                TOP FOR LAYER  36
 READING ON UNIT   11 WITH FORMAT: (80E15.6)           



                                TOP FOR LAYER  37
 READING ON UNIT   11 WITH FORMAT: (80E15.6)           



                                TOP FOR LAYER  38
 READING ON UNIT   11 WITH FORMAT: (80E15.6)           



                                TOP FOR LAYER  39
 READING ON UNIT   11 WITH FORMAT: (80E15.6)           



                                TOP FOR LAYER  40
 READING ON UNIT   11 WITH FORMAT: (80E15.6)           



                                BOT FOR LAYER   1
 READING ON UNIT   11 WITH FORMAT: (80E15.6)           



                                BOT FOR LAYER   2
 READING ON UNIT   11 WITH FORMAT: (80E15.6)           



                                BOT FOR LAYER   3
 READING ON UNIT   11 WITH FORMAT: (80E15.6)           



                                BOT FOR LAYER   4
 READING ON UNIT   11 WITH FORMAT: (80E15.6)           



                                BOT FOR LAYER   5
 READING ON UNIT   11 WITH FORMAT: (80E15.6)           



                                BOT FOR LAYER   6
 READING ON UNIT   11 WITH FORMAT: (80E15.6)           



                                BOT FOR LAYER   7
 READING ON UNIT   11 WITH FORMAT: (80E15.6)           



                                BOT FOR LAYER   8
 READING ON UNIT   11 WITH FORMAT: (80E15.6)           



                                BOT FOR LAYER   9
 READING ON UNIT   11 WITH FORMAT: (80E15.6)           



                                BOT FOR LAYER  10
 READING ON UNIT   11 WITH FORMAT: (80E15.6)           



                                BOT FOR LAYER  11
 READING ON UNIT   11 WITH FORMAT: (80E15.6)           



                                BOT FOR LAYER  12
 READING ON UNIT   11 WITH FORMAT: (80E15.6)           



                                BOT FOR LAYER  13
 READING ON UNIT   11 WITH FORMAT: (80E15.6)           



                                BOT FOR LAYER  14
 READING ON UNIT   11 WITH FORMAT: (80E15.6)           



                                BOT FOR LAYER  15
 READING ON UNIT   11 WITH FORMAT: (80E15.6)           



                                BOT FOR LAYER  16
 READING ON UNIT   11 WITH FORMAT: (80E15.6)           



                                BOT FOR LAYER  17
 READING ON UNIT   11 WITH FORMAT: (80E15.6)           



                                BOT FOR LAYER  18
 READING ON UNIT   11 WITH FORMAT: (80E15.6)           



                                BOT FOR LAYER  19
 READING ON UNIT   11 WITH FORMAT: (80E15.6)           



                                BOT FOR LAYER  20
 READING ON UNIT   11 WITH FORMAT: (80E15.6)           



                                BOT FOR LAYER  21
 READING ON UNIT   11 WITH FORMAT: (80E15.6)           



                                BOT FOR LAYER  22
 READING ON UNIT   11 WITH FORMAT: (80E15.6)           



                                BOT FOR LAYER  23
 READING ON UNIT   11 WITH FORMAT: (80E15.6)           



                                BOT FOR LAYER  24
 READING ON UNIT   11 WITH FORMAT: (80E15.6)           



                                BOT FOR LAYER  25
 READING ON UNIT   11 WITH FORMAT: (80E15.6)           



                                BOT FOR LAYER  26
 READING ON UNIT   11 WITH FORMAT: (80E15.6)           



                                BOT FOR LAYER  27
 READING ON UNIT   11 WITH FORMAT: (80E15.6)           



                                BOT FOR LAYER  28
 READING ON UNIT   11 WITH FORMAT: (80E15.6)           



                                BOT FOR LAYER  29
 READING ON UNIT   11 WITH FORMAT: (80E15.6)           



                                BOT FOR LAYER  30
 READING ON UNIT   11 WITH FORMAT: (80E15.6)           



                                BOT FOR LAYER  31
 READING ON UNIT   11 WITH FORMAT: (80E15.6)           



                                BOT FOR LAYER  32
 READING ON UNIT   11 WITH FORMAT: (80E15.6)           



                                BOT FOR LAYER  33
 READING ON UNIT   11 WITH FORMAT: (80E15.6)           



                                BOT FOR LAYER  34
 READING ON UNIT   11 WITH FORMAT: (80E15.6)           



                                BOT FOR LAYER  35
 READING ON UNIT   11 WITH FORMAT: (80E15.6)           



                                BOT FOR LAYER  36
 READING ON UNIT   11 WITH FORMAT: (80E15.6)           



                                BOT FOR LAYER  37
 READING ON UNIT   11 WITH FORMAT: (80E15.6)           



                                BOT FOR LAYER  38
 READING ON UNIT   11 WITH FORMAT: (80E15.6)           



                                BOT FOR LAYER  39
 READING ON UNIT   11 WITH FORMAT: (80E15.6)           



                                BOT FOR LAYER  40
 READING ON UNIT   11 WITH FORMAT: (80E15.6)           

                     AREA =  2.500000E-02 FOR LAYER   1

                     AREA =  2.500000E-02 FOR LAYER   2

                     AREA =  2.500000E-02 FOR LAYER   3

                     AREA =  2.500000E-02 FOR LAYER   4

                     AREA =  2.500000E-02 FOR LAYER   5

                     AREA =  2.500000E-02 FOR LAYER   6

                     AREA =  2.500000E-02 FOR LAYER   7

                     AREA =  2.500000E-02 FOR LAYER   8

                     AREA =  2.500000E-02 FOR LAYER   9

                     AREA =  2.500000E-02 FOR LAYER  10

                     AREA =  2.500000E-02 FOR LAYER  11

                     AREA =  2.500000E-02 FOR LAYER  12

                     AREA =  2.500000E-02 FOR LAYER  13

                     AREA =  2.500000E-02 FOR LAYER  14

                     AREA =  2.500000E-02 FOR LAYER  15

                     AREA =  2.500000E-02 FOR LAYER  16

                     AREA =  2.500000E-02 FOR LAYER  17

                     AREA =  2.500000E-02 FOR LAYER  18

                     AREA =  2.500000E-02 FOR LAYER  19

                     AREA =  2.500000E-02 FOR LAYER  20

                     AREA =  2.500000E-02 FOR LAYER  21

                     AREA =  2.500000E-02 FOR LAYER  22

                     AREA =  2.500000E-02 FOR LAYER  23

                     AREA =  2.500000E-02 FOR LAYER  24

                     AREA =  2.500000E-02 FOR LAYER  25

                     AREA =  2.500000E-02 FOR LAYER  26

                     AREA =  2.500000E-02 FOR LAYER  27

                     AREA =  2.500000E-02 FOR LAYER  28

                     AREA =  2.500000E-02 FOR LAYER  29

                     AREA =  2.500000E-02 FOR LAYER  30

                     AREA =  2.500000E-02 FOR LAYER  31

                     AREA =  2.500000E-02 FOR LAYER  32

                     AREA =  2.500000E-02 FOR LAYER  33

                     AREA =  2.500000E-02 FOR LAYER  34

                     AREA =  2.500000E-02 FOR LAYER  35

                     AREA =  2.500000E-02 FOR LAYER  36

                     AREA =  2.500000E-02 FOR LAYER  37

                     AREA =  2.500000E-02 FOR LAYER  38

                     AREA =  2.500000E-02 FOR LAYER  39

                     AREA =  2.500000E-02 FOR LAYER  40



                                 IA
 READING ON UNIT   11 WITH FORMAT: (3200I10)           



                                 JA
 READING ON UNIT   11 WITH FORMAT: (15760I10)          



               CONNECTION LENGTH 12 FOR LAYER   1
 READING ON UNIT   11 WITH FORMAT: (15760E15.6)        



                 PERPENDICULAR AREA
 READING ON UNIT   11 WITH FORMAT: (15760E15.6)        


 STRESS PERIOD     LENGTH       TIME STEPS     MULTIPLIER FOR DELT    SS FLAG
 ----------------------------------------------------------------------------
        1         1.000000          1                    1.000         SS
        2        0.5000000        500                    1.000         TR

 COMBINED STEADY-STATE AND TRANSIENT SIMULATION






                     BOUNDARY ARRAY FOR LAYER   1
 READING ON UNIT   13 WITH FORMAT: (80I10)             



                     BOUNDARY ARRAY FOR LAYER   2
 READING ON UNIT   13 WITH FORMAT: (80I10)             



                     BOUNDARY ARRAY FOR LAYER   3
 READING ON UNIT   13 WITH FORMAT: (80I10)             



                     BOUNDARY ARRAY FOR LAYER   4
 READING ON UNIT   13 WITH FORMAT: (80I10)             



                     BOUNDARY ARRAY FOR LAYER   5
 READING ON UNIT   13 WITH FORMAT: (80I10)             



                     BOUNDARY ARRAY FOR LAYER   6
 READING ON UNIT   13 WITH FORMAT: (80I10)             



                     BOUNDARY ARRAY FOR LAYER   7
 READING ON UNIT   13 WITH FORMAT: (80I10)             



                     BOUNDARY ARRAY FOR LAYER   8
 READING ON UNIT   13 WITH FORMAT: (80I10)             



                     BOUNDARY ARRAY FOR LAYER   9
 READING ON UNIT   13 WITH FORMAT: (80I10)             



                     BOUNDARY ARRAY FOR LAYER  10
 READING ON UNIT   13 WITH FORMAT: (80I10)             



                     BOUNDARY ARRAY FOR LAYER  11
 READING ON UNIT   13 WITH FORMAT: (80I10)             



                     BOUNDARY ARRAY FOR LAYER  12
 READING ON UNIT   13 WITH FORMAT: (80I10)             



                     BOUNDARY ARRAY FOR LAYER  13
 READING ON UNIT   13 WITH FORMAT: (80I10)             



                     BOUNDARY ARRAY FOR LAYER  14
 READING ON UNIT   13 WITH FORMAT: (80I10)             



                     BOUNDARY ARRAY FOR LAYER  15
 READING ON UNIT   13 WITH FORMAT: (80I10)             



                     BOUNDARY ARRAY FOR LAYER  16
 READING ON UNIT   13 WITH FORMAT: (80I10)             



                     BOUNDARY ARRAY FOR LAYER  17
 READING ON UNIT   13 WITH FORMAT: (80I10)             



                     BOUNDARY ARRAY FOR LAYER  18
 READING ON UNIT   13 WITH FORMAT: (80I10)             



                     BOUNDARY ARRAY FOR LAYER  19
 READING ON UNIT   13 WITH FORMAT: (80I10)             



                     BOUNDARY ARRAY FOR LAYER  20
 READING ON UNIT   13 WITH FORMAT: (80I10)             



                     BOUNDARY ARRAY FOR LAYER  21
 READING ON UNIT   13 WITH FORMAT: (80I10)             



                     BOUNDARY ARRAY FOR LAYER  22
 READING ON UNIT   13 WITH FORMAT: (80I10)             



                     BOUNDARY ARRAY FOR LAYER  23
 READING ON UNIT   13 WITH FORMAT: (80I10)             



                     BOUNDARY ARRAY FOR LAYER  24
 READING ON UNIT   13 WITH FORMAT: (80I10)             



                     BOUNDARY ARRAY FOR LAYER  25
 READING ON UNIT   13 WITH FORMAT: (80I10)             



                     BOUNDARY ARRAY FOR LAYER  26
 READING ON UNIT   13 WITH FORMAT: (80I10)             



                     BOUNDARY ARRAY FOR LAYER  27
 READING ON UNIT   13 WITH FORMAT: (80I10)             



                     BOUNDARY ARRAY FOR LAYER  28
 READING ON UNIT   13 WITH FORMAT: (80I10)             



                     BOUNDARY ARRAY FOR LAYER  29
 READING ON UNIT   13 WITH FORMAT: (80I10)             



                     BOUNDARY ARRAY FOR LAYER  30
 READING ON UNIT   13 WITH FORMAT: (80I10)             



                     BOUNDARY ARRAY FOR LAYER  31
 READING ON UNIT   13 WITH FORMAT: (80I10)             



                     BOUNDARY ARRAY FOR LAYER  32
 READING ON UNIT   13 WITH FORMAT: (80I10)             



                     BOUNDARY ARRAY FOR LAYER  33
 READING ON UNIT   13 WITH FORMAT: (80I10)             



                     BOUNDARY ARRAY FOR LAYER  34
 READING ON UNIT   13 WITH FORMAT: (80I10)             



                     BOUNDARY ARRAY FOR LAYER  35
 READING ON UNIT   13 WITH FORMAT: (80I10)             



                     BOUNDARY ARRAY FOR LAYER  36
 READING ON UNIT   13 WITH FORMAT: (80I10)             



                     BOUNDARY ARRAY FOR LAYER  37
 READING ON UNIT   13 WITH FORMAT: (80I10)             



                     BOUNDARY ARRAY FOR LAYER  38
 READING ON UNIT   13 WITH FORMAT: (80I10)             



                     BOUNDARY ARRAY FOR LAYER  39
 READING ON UNIT   13 WITH FORMAT: (80I10)             



                     BOUNDARY ARRAY FOR LAYER  40
 READING ON UNIT   13 WITH FORMAT: (80I10)             

 AQUIFER HEAD WILL BE SET TO  -999.99     AT ALL NO-FLOW NODES (IBOUND=0).

             INITIAL HEAD =   1.00000     FOR LAYER   1

             INITIAL HEAD =   1.00000     FOR LAYER   2

             INITIAL HEAD =   1.00000     FOR LAYER   3

             INITIAL HEAD =   1.00000     FOR LAYER   4

             INITIAL HEAD =   1.00000     FOR LAYER   5

             INITIAL HEAD =   1.00000     FOR LAYER   6

             INITIAL HEAD =   1.00000     FOR LAYER   7

             INITIAL HEAD =   1.00000     FOR LAYER   8

             INITIAL HEAD =   1.00000     FOR LAYER   9

             INITIAL HEAD =   1.00000     FOR LAYER  10

             INITIAL HEAD =   1.00000     FOR LAYER  11

             INITIAL HEAD =   1.00000     FOR LAYER  12

             INITIAL HEAD =   1.00000     FOR LAYER  13

             INITIAL HEAD =   1.00000     FOR LAYER  14

             INITIAL HEAD =   1.00000     FOR LAYER  15

             INITIAL HEAD =   1.00000     FOR LAYER  16

             INITIAL HEAD =   1.00000     FOR LAYER  17

             INITIAL HEAD =   1.00000     FOR LAYER  18

             INITIAL HEAD =   1.00000     FOR LAYER  19

             INITIAL HEAD =   1.00000     FOR LAYER  20

             INITIAL HEAD =   1.00000     FOR LAYER  21

             INITIAL HEAD =   1.00000     FOR LAYER  22

             INITIAL HEAD =   1.00000     FOR LAYER  23

             INITIAL HEAD =   1.00000     FOR LAYER  24

             INITIAL HEAD =   1.00000     FOR LAYER  25

             INITIAL HEAD =   1.00000     FOR LAYER  26

             INITIAL HEAD =   1.00000     FOR LAYER  27

             INITIAL HEAD =   1.00000     FOR LAYER  28

             INITIAL HEAD =   1.00000     FOR LAYER  29

             INITIAL HEAD =   1.00000     FOR LAYER  30

             INITIAL HEAD =   1.00000     FOR LAYER  31

             INITIAL HEAD =   1.00000     FOR LAYER  32

             INITIAL HEAD =   1.00000     FOR LAYER  33

             INITIAL HEAD =   1.00000     FOR LAYER  34

             INITIAL HEAD =   1.00000     FOR LAYER  35

             INITIAL HEAD =   1.00000     FOR LAYER  36

             INITIAL HEAD =   1.00000     FOR LAYER  37

             INITIAL HEAD =   1.00000     FOR LAYER  38

             INITIAL HEAD =   1.00000     FOR LAYER  39

             INITIAL HEAD =   1.00000     FOR LAYER  40
 # OC package for MODFLOW-USG generated by Flopy 3.6.0

 OUTPUT CONTROL IS SPECIFIED ONLY AT TIME STEPS FOR WHICH OUTPUT IS DESIRED
 COMPACT CELL-BY-CELL BUDGET FILES WILL BE WRITTEN
 AUXILIARY DATA WILL BE SAVED IN CELL-BY-CELL BUDGET FILES
 HEAD PRINT FORMAT CODE IS   0    DRAWDOWN PRINT FORMAT CODE IS   0        CONC PRINT FORMAT CODE IS   0
 HEADS WILL BE SAVED ON UNIT   51    DRAWDOWNS WILL BE SAVED ON UNIT    0        CONCS WILL BE SAVED ON UNIT   52

 LPF -- LAYER-PROPERTY FLOW PACKAGE, VERSION 7, 5/2/2005
         INPUT READ FROM UNIT   15
 # LPF package for MODFLOW-USG generated by Flopy 3.6.0
 CELL-BY-CELL FLOWS WILL BE SAVED ON UNIT   53
 HEAD AT CELLS THAT CONVERT TO DRY= -1.00000E+30
 No named parameters
 IKCFLAG=0, NODAL INPUT OF HY AND CV

   LAYER FLAGS:
 LAYER       LAYTYP        LAYAVG         CHANI        LAYVKA        LAYWET
 ---------------------------------------------------------------------------
    1             0             0     1.000E+00             0             0
    2             0             0     1.000E+00             0             0
    3             0             0     1.000E+00             0             0
    4             0             0     1.000E+00             0             0
    5             0             0     1.000E+00             0             0
    6             0             0     1.000E+00             0             0
    7             0             0     1.000E+00             0             0
    8             0             0     1.000E+00             0             0
    9             0             0     1.000E+00             0             0
   10             0             0     1.000E+00             0             0
   11             0             0     1.000E+00             0             0
   12             0             0     1.000E+00             0             0
   13             0             0     1.000E+00             0             0
   14             0             0     1.000E+00             0             0
   15             0             0     1.000E+00             0             0
   16             0             0     1.000E+00             0             0
   17             0             0     1.000E+00             0             0
   18             0             0     1.000E+00             0             0
   19             0             0     1.000E+00             0             0
   20             0             0     1.000E+00             0             0
   21             0             0     1.000E+00             0             0
   22             0             0     1.000E+00             0             0
   23             0             0     1.000E+00             0             0
   24             0             0     1.000E+00             0             0
   25             0             0     1.000E+00             0             0
   26             0             0     1.000E+00             0             0
   27             0             0     1.000E+00             0             0
   28             0             0     1.000E+00             0             0
   29             0             0     1.000E+00             0             0
   30             0             0     1.000E+00             0             0
   31             0             0     1.000E+00             0             0
   32             0             0     1.000E+00             0             0
   33             0             0     1.000E+00             0             0
   34             0             0     1.000E+00             0             0
   35             0             0     1.000E+00             0             0
   36             0             0     1.000E+00             0             0
   37             0             0     1.000E+00             0             0
   38             0             0     1.000E+00             0             0
   39             0             0     1.000E+00             0             0
   40             0             0     1.000E+00             0             0

   INTERPRETATION OF LAYER FLAGS:
                        INTERBLOCK     HORIZONTAL    DATA IN
         LAYER TYPE   TRANSMISSIVITY   ANISOTROPY   ARRAY VKA   WETTABILITY
 LAYER      (LAYTYP)      (LAYAVG)       (CHANI)      (LAYVKA)      (LAYWET)
 ---------------------------------------------------------------------------
    1     CONFINED       HARMONIC     1.000E+00    VERTICAL K  NON-WETTABLE
    2     CONFINED       HARMONIC     1.000E+00    VERTICAL K  NON-WETTABLE
    3     CONFINED       HARMONIC     1.000E+00    VERTICAL K  NON-WETTABLE
    4     CONFINED       HARMONIC     1.000E+00    VERTICAL K  NON-WETTABLE
    5     CONFINED       HARMONIC     1.000E+00    VERTICAL K  NON-WETTABLE
    6     CONFINED       HARMONIC     1.000E+00    VERTICAL K  NON-WETTABLE
    7     CONFINED       HARMONIC     1.000E+00    VERTICAL K  NON-WETTABLE
    8     CONFINED       HARMONIC     1.000E+00    VERTICAL K  NON-WETTABLE
    9     CONFINED       HARMONIC     1.000E+00    VERTICAL K  NON-WETTABLE
   10     CONFINED       HARMONIC     1.000E+00    VERTICAL K  NON-WETTABLE
   11     CONFINED       HARMONIC     1.000E+00    VERTICAL K  NON-WETTABLE
   12     CONFINED       HARMONIC     1.000E+00    VERTICAL K  NON-WETTABLE
   13     CONFINED       HARMONIC     1.000E+00    VERTICAL K  NON-WETTABLE
   14     CONFINED       HARMONIC     1.000E+00    VERTICAL K  NON-WETTABLE
   15     CONFINED       HARMONIC     1.000E+00    VERTICAL K  NON-WETTABLE
   16     CONFINED       HARMONIC     1.000E+00    VERTICAL K  NON-WETTABLE
   17     CONFINED       HARMONIC     1.000E+00    VERTICAL K  NON-WETTABLE
   18     CONFINED       HARMONIC     1.000E+00    VERTICAL K  NON-WETTABLE
   19     CONFINED       HARMONIC     1.000E+00    VERTICAL K  NON-WETTABLE
   20     CONFINED       HARMONIC     1.000E+00    VERTICAL K  NON-WETTABLE
   21     CONFINED       HARMONIC     1.000E+00    VERTICAL K  NON-WETTABLE
   22     CONFINED       HARMONIC     1.000E+00    VERTICAL K  NON-WETTABLE
   23     CONFINED       HARMONIC     1.000E+00    VERTICAL K  NON-WETTABLE
   24     CONFINED       HARMONIC     1.000E+00    VERTICAL K  NON-WETTABLE
   25     CONFINED       HARMONIC     1.000E+00    VERTICAL K  NON-WETTABLE
   26     CONFINED       HARMONIC     1.000E+00    VERTICAL K  NON-WETTABLE
   27     CONFINED       HARMONIC     1.000E+00    VERTICAL K  NON-WETTABLE
   28     CONFINED       HARMONIC     1.000E+00    VERTICAL K  NON-WETTABLE
   29     CONFINED       HARMONIC     1.000E+00    VERTICAL K  NON-WETTABLE
   30     CONFINED       HARMONIC     1.000E+00    VERTICAL K  NON-WETTABLE
   31     CONFINED       HARMONIC     1.000E+00    VERTICAL K  NON-WETTABLE
   32     CONFINED       HARMONIC     1.000E+00    VERTICAL K  NON-WETTABLE
   33     CONFINED       HARMONIC     1.000E+00    VERTICAL K  NON-WETTABLE
   34     CONFINED       HARMONIC     1.000E+00    VERTICAL K  NON-WETTABLE
   35     CONFINED       HARMONIC     1.000E+00    VERTICAL K  NON-WETTABLE
   36     CONFINED       HARMONIC     1.000E+00    VERTICAL K  NON-WETTABLE
   37     CONFINED       HARMONIC     1.000E+00    VERTICAL K  NON-WETTABLE
   38     CONFINED       HARMONIC     1.000E+00    VERTICAL K  NON-WETTABLE
   39     CONFINED       HARMONIC     1.000E+00    VERTICAL K  NON-WETTABLE
   40     CONFINED       HARMONIC     1.000E+00    VERTICAL K  NON-WETTABLE

 WETTING CAPABILITY IS NOT ACTIVE IN ANY LAYER

    HYD. COND. ALONG ROWS =   864.000     FOR LAYER   1

      VERTICAL HYD. COND. =   864.000     FOR LAYER   1

         SPECIFIC STORAGE =  1.000000E-32 FOR LAYER   1

    HYD. COND. ALONG ROWS =   864.000     FOR LAYER   2

      VERTICAL HYD. COND. =   864.000     FOR LAYER   2

         SPECIFIC STORAGE =  1.000000E-32 FOR LAYER   2

    HYD. COND. ALONG ROWS =   864.000     FOR LAYER   3

      VERTICAL HYD. COND. =   864.000     FOR LAYER   3

         SPECIFIC STORAGE =  1.000000E-32 FOR LAYER   3

    HYD. COND. ALONG ROWS =   864.000     FOR LAYER   4

      VERTICAL HYD. COND. =   864.000     FOR LAYER   4

         SPECIFIC STORAGE =  1.000000E-32 FOR LAYER   4

    HYD. COND. ALONG ROWS =   864.000     FOR LAYER   5

      VERTICAL HYD. COND. =   864.000     FOR LAYER   5

         SPECIFIC STORAGE =  1.000000E-32 FOR LAYER   5

    HYD. COND. ALONG ROWS =   864.000     FOR LAYER   6

      VERTICAL HYD. COND. =   864.000     FOR LAYER   6

         SPECIFIC STORAGE =  1.000000E-32 FOR LAYER   6

    HYD. COND. ALONG ROWS =   864.000     FOR LAYER   7

      VERTICAL HYD. COND. =   864.000     FOR LAYER   7

         SPECIFIC STORAGE =  1.000000E-32 FOR LAYER   7

    HYD. COND. ALONG ROWS =   864.000     FOR LAYER   8

      VERTICAL HYD. COND. =   864.000     FOR LAYER   8

         SPECIFIC STORAGE =  1.000000E-32 FOR LAYER   8

    HYD. COND. ALONG ROWS =   864.000     FOR LAYER   9

      VERTICAL HYD. COND. =   864.000     FOR LAYER   9

         SPECIFIC STORAGE =  1.000000E-32 FOR LAYER   9

    HYD. COND. ALONG ROWS =   864.000     FOR LAYER  10

      VERTICAL HYD. COND. =   864.000     FOR LAYER  10

         SPECIFIC STORAGE =  1.000000E-32 FOR LAYER  10

    HYD. COND. ALONG ROWS =   864.000     FOR LAYER  11

      VERTICAL HYD. COND. =   864.000     FOR LAYER  11

         SPECIFIC STORAGE =  1.000000E-32 FOR LAYER  11

    HYD. COND. ALONG ROWS =   864.000     FOR LAYER  12

      VERTICAL HYD. COND. =   864.000     FOR LAYER  12

         SPECIFIC STORAGE =  1.000000E-32 FOR LAYER  12

    HYD. COND. ALONG ROWS =   864.000     FOR LAYER  13

      VERTICAL HYD. COND. =   864.000     FOR LAYER  13

         SPECIFIC STORAGE =  1.000000E-32 FOR LAYER  13

    HYD. COND. ALONG ROWS =   864.000     FOR LAYER  14

      VERTICAL HYD. COND. =   864.000     FOR LAYER  14

         SPECIFIC STORAGE =  1.000000E-32 FOR LAYER  14

    HYD. COND. ALONG ROWS =   864.000     FOR LAYER  15

      VERTICAL HYD. COND. =   864.000     FOR LAYER  15

         SPECIFIC STORAGE =  1.000000E-32 FOR LAYER  15

    HYD. COND. ALONG ROWS =   864.000     FOR LAYER  16

      VERTICAL HYD. COND. =   864.000     FOR LAYER  16

         SPECIFIC STORAGE =  1.000000E-32 FOR LAYER  16

    HYD. COND. ALONG ROWS =   864.000     FOR LAYER  17

      VERTICAL HYD. COND. =   864.000     FOR LAYER  17

         SPECIFIC STORAGE =  1.000000E-32 FOR LAYER  17

    HYD. COND. ALONG ROWS =   864.000     FOR LAYER  18

      VERTICAL HYD. COND. =   864.000     FOR LAYER  18

         SPECIFIC STORAGE =  1.000000E-32 FOR LAYER  18

    HYD. COND. ALONG ROWS =   864.000     FOR LAYER  19

      VERTICAL HYD. COND. =   864.000     FOR LAYER  19

         SPECIFIC STORAGE =  1.000000E-32 FOR LAYER  19

    HYD. COND. ALONG ROWS =   864.000     FOR LAYER  20

      VERTICAL HYD. COND. =   864.000     FOR LAYER  20

         SPECIFIC STORAGE =  1.000000E-32 FOR LAYER  20

    HYD. COND. ALONG ROWS =   864.000     FOR LAYER  21

      VERTICAL HYD. COND. =   864.000     FOR LAYER  21

         SPECIFIC STORAGE =  1.000000E-32 FOR LAYER  21

    HYD. COND. ALONG ROWS =   864.000     FOR LAYER  22

      VERTICAL HYD. COND. =   864.000     FOR LAYER  22

         SPECIFIC STORAGE =  1.000000E-32 FOR LAYER  22

    HYD. COND. ALONG ROWS =   864.000     FOR LAYER  23

      VERTICAL HYD. COND. =   864.000     FOR LAYER  23

         SPECIFIC STORAGE =  1.000000E-32 FOR LAYER  23

    HYD. COND. ALONG ROWS =   864.000     FOR LAYER  24

      VERTICAL HYD. COND. =   864.000     FOR LAYER  24

         SPECIFIC STORAGE =  1.000000E-32 FOR LAYER  24

    HYD. COND. ALONG ROWS =   864.000     FOR LAYER  25

      VERTICAL HYD. COND. =   864.000     FOR LAYER  25

         SPECIFIC STORAGE =  1.000000E-32 FOR LAYER  25

    HYD. COND. ALONG ROWS =   864.000     FOR LAYER  26

      VERTICAL HYD. COND. =   864.000     FOR LAYER  26

         SPECIFIC STORAGE =  1.000000E-32 FOR LAYER  26

    HYD. COND. ALONG ROWS =   864.000     FOR LAYER  27

      VERTICAL HYD. COND. =   864.000     FOR LAYER  27

         SPECIFIC STORAGE =  1.000000E-32 FOR LAYER  27

    HYD. COND. ALONG ROWS =   864.000     FOR LAYER  28

      VERTICAL HYD. COND. =   864.000     FOR LAYER  28

         SPECIFIC STORAGE =  1.000000E-32 FOR LAYER  28

    HYD. COND. ALONG ROWS =   864.000     FOR LAYER  29

      VERTICAL HYD. COND. =   864.000     FOR LAYER  29

         SPECIFIC STORAGE =  1.000000E-32 FOR LAYER  29

    HYD. COND. ALONG ROWS =   864.000     FOR LAYER  30

      VERTICAL HYD. COND. =   864.000     FOR LAYER  30

         SPECIFIC STORAGE =  1.000000E-32 FOR LAYER  30

    HYD. COND. ALONG ROWS =   864.000     FOR LAYER  31

      VERTICAL HYD. COND. =   864.000     FOR LAYER  31

         SPECIFIC STORAGE =  1.000000E-32 FOR LAYER  31

    HYD. COND. ALONG ROWS =   864.000     FOR LAYER  32

      VERTICAL HYD. COND. =   864.000     FOR LAYER  32

         SPECIFIC STORAGE =  1.000000E-32 FOR LAYER  32

    HYD. COND. ALONG ROWS =   864.000     FOR LAYER  33

      VERTICAL HYD. COND. =   864.000     FOR LAYER  33

         SPECIFIC STORAGE =  1.000000E-32 FOR LAYER  33

    HYD. COND. ALONG ROWS =   864.000     FOR LAYER  34

      VERTICAL HYD. COND. =   864.000     FOR LAYER  34

         SPECIFIC STORAGE =  1.000000E-32 FOR LAYER  34

    HYD. COND. ALONG ROWS =   864.000     FOR LAYER  35

      VERTICAL HYD. COND. =   864.000     FOR LAYER  35

         SPECIFIC STORAGE =  1.000000E-32 FOR LAYER  35

    HYD. COND. ALONG ROWS =   864.000     FOR LAYER  36

      VERTICAL HYD. COND. =   864.000     FOR LAYER  36

         SPECIFIC STORAGE =  1.000000E-32 FOR LAYER  36

    HYD. COND. ALONG ROWS =   864.000     FOR LAYER  37

      VERTICAL HYD. COND. =   864.000     FOR LAYER  37

         SPECIFIC STORAGE =  1.000000E-32 FOR LAYER  37

    HYD. COND. ALONG ROWS =   864.000     FOR LAYER  38

      VERTICAL HYD. COND. =   864.000     FOR LAYER  38

         SPECIFIC STORAGE =  1.000000E-32 FOR LAYER  38

    HYD. COND. ALONG ROWS =   864.000     FOR LAYER  39

      VERTICAL HYD. COND. =   864.000     FOR LAYER  39

         SPECIFIC STORAGE =  1.000000E-32 FOR LAYER  39

    HYD. COND. ALONG ROWS =   864.000     FOR LAYER  40

      VERTICAL HYD. COND. =   864.000     FOR LAYER  40

         SPECIFIC STORAGE =  1.000000E-32 FOR LAYER  40

 BCT -- BLOCK-CENTERED TRANSPORT PACKAGE, VER. 8, 9/12/2009
         INPUT READ FROM UNIT 35
 TRANSPORT FLAG (ITRNSP)                             =  1
 C-B-C FLUX FLAG OR UNIT NUMBER (IBCTCB)             =  0
 NUMBER OF MOBILE COMPONENTS (MCOMP)                 =  1
 ACTIVE DOMAIN SAME AS FOR FLOW FLAG (IC_IBOUND_FLG) =  1
 TVD SCHEME FLAG AND FCT COUNT (ITVD)                =  0
 ADSORPTION FLAG (IADSORB)                           =  0
 FLAG TO SOLVE FOR TOTAL CONCENTRATION (ICT)         =  0
 CONCENTRATION AT INACTIVE CELLS (CINACT)            =  -999.00    
 SOLVER TOLERANCE FOR TRANSPORT (CICLOSE)            =  0.10000E-05
 DISPERSION FLAG (IDISP)                             =  1
 CROSS-DISPERSION FLAG (IXDISP)                      =  0
 DIFFUSION COEFFICIENT (DIFFNC)                      =  0.57024    
 ZERO-ORDER DECAY FLAG (IZOD)                        =  0
 FIRST-ORDER DECAY FLAG (IFOD)                       =  0
 FLOW ERROR CORRECTION FLAG OR UNIT NUMBER (IFMBC)   =  0
 INDEX FOR SIMULATION OF HEAT TRANSPORT (IHEAT)      =  0
  NUMBER OF IMMOBILE COMPONENTS  (IMCOMP)             =  0
 INDEX FOR CLN-GW DISPERSION EQUATION (IDISPCLN)     =  0
 NUMBER OF SEQUENTIAL ITERATIONS (NSEQITR)           =  1
  TRANSPORT SIMULATION FOLLOWS FLOW ITRNSP = 1)

                 POROSITY =  0.350000     FOR LAYER   1

                 POROSITY =  0.350000     FOR LAYER   2

                 POROSITY =  0.350000     FOR LAYER   3

                 POROSITY =  0.350000     FOR LAYER   4

                 POROSITY =  0.350000     FOR LAYER   5

                 POROSITY =  0.350000     FOR LAYER   6

                 POROSITY =  0.350000     FOR LAYER   7

                 POROSITY =  0.350000     FOR LAYER   8

                 POROSITY =  0.350000     FOR LAYER   9

                 POROSITY =  0.350000     FOR LAYER  10

                 POROSITY =  0.350000     FOR LAYER  11

                 POROSITY =  0.350000     FOR LAYER  12

                 POROSITY =  0.350000     FOR LAYER  13

                 POROSITY =  0.350000     FOR LAYER  14

                 POROSITY =  0.350000     FOR LAYER  15

                 POROSITY =  0.350000     FOR LAYER  16

                 POROSITY =  0.350000     FOR LAYER  17

                 POROSITY =  0.350000     FOR LAYER  18

                 POROSITY =  0.350000     FOR LAYER  19

                 POROSITY =  0.350000     FOR LAYER  20

                 POROSITY =  0.350000     FOR LAYER  21

                 POROSITY =  0.350000     FOR LAYER  22

                 POROSITY =  0.350000     FOR LAYER  23

                 POROSITY =  0.350000     FOR LAYER  24

                 POROSITY =  0.350000     FOR LAYER  25

                 POROSITY =  0.350000     FOR LAYER  26

                 POROSITY =  0.350000     FOR LAYER  27

                 POROSITY =  0.350000     FOR LAYER  28

                 POROSITY =  0.350000     FOR LAYER  29

                 POROSITY =  0.350000     FOR LAYER  30

                 POROSITY =  0.350000     FOR LAYER  31

                 POROSITY =  0.350000     FOR LAYER  32

                 POROSITY =  0.350000     FOR LAYER  33

                 POROSITY =  0.350000     FOR LAYER  34

                 POROSITY =  0.350000     FOR LAYER  35

                 POROSITY =  0.350000     FOR LAYER  36

                 POROSITY =  0.350000     FOR LAYER  37

                 POROSITY =  0.350000     FOR LAYER  38

                 POROSITY =  0.350000     FOR LAYER  39

                 POROSITY =  0.350000     FOR LAYER  40

               FACE ANGLE =   0.00000    

        LONG DISPERSIVITY =   0.00000     FOR LAYER   1

        LONG DISPERSIVITY =   0.00000     FOR LAYER   2

        LONG DISPERSIVITY =   0.00000     FOR LAYER   3

        LONG DISPERSIVITY =   0.00000     FOR LAYER   4

        LONG DISPERSIVITY =   0.00000     FOR LAYER   5

        LONG DISPERSIVITY =   0.00000     FOR LAYER   6

        LONG DISPERSIVITY =   0.00000     FOR LAYER   7

        LONG DISPERSIVITY =   0.00000     FOR LAYER   8

        LONG DISPERSIVITY =   0.00000     FOR LAYER   9

        LONG DISPERSIVITY =   0.00000     FOR LAYER  10

        LONG DISPERSIVITY =   0.00000     FOR LAYER  11

        LONG DISPERSIVITY =   0.00000     FOR LAYER  12

        LONG DISPERSIVITY =   0.00000     FOR LAYER  13

        LONG DISPERSIVITY =   0.00000     FOR LAYER  14

        LONG DISPERSIVITY =   0.00000     FOR LAYER  15

        LONG DISPERSIVITY =   0.00000     FOR LAYER  16

        LONG DISPERSIVITY =   0.00000     FOR LAYER  17

        LONG DISPERSIVITY =   0.00000     FOR LAYER  18

        LONG DISPERSIVITY =   0.00000     FOR LAYER  19

        LONG DISPERSIVITY =   0.00000     FOR LAYER  20

        LONG DISPERSIVITY =   0.00000     FOR LAYER  21

        LONG DISPERSIVITY =   0.00000     FOR LAYER  22

        LONG DISPERSIVITY =   0.00000     FOR LAYER  23

        LONG DISPERSIVITY =   0.00000     FOR LAYER  24

        LONG DISPERSIVITY =   0.00000     FOR LAYER  25

        LONG DISPERSIVITY =   0.00000     FOR LAYER  26

        LONG DISPERSIVITY =   0.00000     FOR LAYER  27

        LONG DISPERSIVITY =   0.00000     FOR LAYER  28

        LONG DISPERSIVITY =   0.00000     FOR LAYER  29

        LONG DISPERSIVITY =   0.00000     FOR LAYER  30

        LONG DISPERSIVITY =   0.00000     FOR LAYER  31

        LONG DISPERSIVITY =   0.00000     FOR LAYER  32

        LONG DISPERSIVITY =   0.00000     FOR LAYER  33

        LONG DISPERSIVITY =   0.00000     FOR LAYER  34

        LONG DISPERSIVITY =   0.00000     FOR LAYER  35

        LONG DISPERSIVITY =   0.00000     FOR LAYER  36

        LONG DISPERSIVITY =   0.00000     FOR LAYER  37

        LONG DISPERSIVITY =   0.00000     FOR LAYER  38

        LONG DISPERSIVITY =   0.00000     FOR LAYER  39

        LONG DISPERSIVITY =   0.00000     FOR LAYER  40

        TRNS DISPERSIVITY =   0.00000     FOR LAYER   1

        TRNS DISPERSIVITY =   0.00000     FOR LAYER   2

        TRNS DISPERSIVITY =   0.00000     FOR LAYER   3

        TRNS DISPERSIVITY =   0.00000     FOR LAYER   4

        TRNS DISPERSIVITY =   0.00000     FOR LAYER   5

        TRNS DISPERSIVITY =   0.00000     FOR LAYER   6

        TRNS DISPERSIVITY =   0.00000     FOR LAYER   7

        TRNS DISPERSIVITY =   0.00000     FOR LAYER   8

        TRNS DISPERSIVITY =   0.00000     FOR LAYER   9

        TRNS DISPERSIVITY =   0.00000     FOR LAYER  10

        TRNS DISPERSIVITY =   0.00000     FOR LAYER  11

        TRNS DISPERSIVITY =   0.00000     FOR LAYER  12

        TRNS DISPERSIVITY =   0.00000     FOR LAYER  13

        TRNS DISPERSIVITY =   0.00000     FOR LAYER  14

        TRNS DISPERSIVITY =   0.00000     FOR LAYER  15

        TRNS DISPERSIVITY =   0.00000     FOR LAYER  16

        TRNS DISPERSIVITY =   0.00000     FOR LAYER  17

        TRNS DISPERSIVITY =   0.00000     FOR LAYER  18

        TRNS DISPERSIVITY =   0.00000     FOR LAYER  19

        TRNS DISPERSIVITY =   0.00000     FOR LAYER  20

        TRNS DISPERSIVITY =   0.00000     FOR LAYER  21

        TRNS DISPERSIVITY =   0.00000     FOR LAYER  22

        TRNS DISPERSIVITY =   0.00000     FOR LAYER  23

        TRNS DISPERSIVITY =   0.00000     FOR LAYER  24

        TRNS DISPERSIVITY =   0.00000     FOR LAYER  25

        TRNS DISPERSIVITY =   0.00000     FOR LAYER  26

        TRNS DISPERSIVITY =   0.00000     FOR LAYER  27

        TRNS DISPERSIVITY =   0.00000     FOR LAYER  28

        TRNS DISPERSIVITY =   0.00000     FOR LAYER  29

        TRNS DISPERSIVITY =   0.00000     FOR LAYER  30

        TRNS DISPERSIVITY =   0.00000     FOR LAYER  31

        TRNS DISPERSIVITY =   0.00000     FOR LAYER  32

        TRNS DISPERSIVITY =   0.00000     FOR LAYER  33

        TRNS DISPERSIVITY =   0.00000     FOR LAYER  34

        TRNS DISPERSIVITY =   0.00000     FOR LAYER  35

        TRNS DISPERSIVITY =   0.00000     FOR LAYER  36

        TRNS DISPERSIVITY =   0.00000     FOR LAYER  37

        TRNS DISPERSIVITY =   0.00000     FOR LAYER  38

        TRNS DISPERSIVITY =   0.00000     FOR LAYER  39

        TRNS DISPERSIVITY =   0.00000     FOR LAYER  40
--------------------------------------------------------------------------------
 THE FOLLOWING ARRAYS ARE READ FOR COMPONENT NUMBER   1

            CONCENTRATION =   35.0000     FOR LAYER   1

            CONCENTRATION =   35.0000     FOR LAYER   2

            CONCENTRATION =   35.0000     FOR LAYER   3

            CONCENTRATION =   35.0000     FOR LAYER   4

            CONCENTRATION =   35.0000     FOR LAYER   5

            CONCENTRATION =   35.0000     FOR LAYER   6

            CONCENTRATION =   35.0000     FOR LAYER   7

            CONCENTRATION =   35.0000     FOR LAYER   8

            CONCENTRATION =   35.0000     FOR LAYER   9

            CONCENTRATION =   35.0000     FOR LAYER  10

            CONCENTRATION =   35.0000     FOR LAYER  11

            CONCENTRATION =   35.0000     FOR LAYER  12

            CONCENTRATION =   35.0000     FOR LAYER  13

            CONCENTRATION =   35.0000     FOR LAYER  14

            CONCENTRATION =   35.0000     FOR LAYER  15

            CONCENTRATION =   35.0000     FOR LAYER  16

            CONCENTRATION =   35.0000     FOR LAYER  17

            CONCENTRATION =   35.0000     FOR LAYER  18

            CONCENTRATION =   35.0000     FOR LAYER  19

            CONCENTRATION =   35.0000     FOR LAYER  20

            CONCENTRATION =   35.0000     FOR LAYER  21

            CONCENTRATION =   35.0000     FOR LAYER  22

            CONCENTRATION =   35.0000     FOR LAYER  23

            CONCENTRATION =   35.0000     FOR LAYER  24

            CONCENTRATION =   35.0000     FOR LAYER  25

            CONCENTRATION =   35.0000     FOR LAYER  26

            CONCENTRATION =   35.0000     FOR LAYER  27

            CONCENTRATION =   35.0000     FOR LAYER  28

            CONCENTRATION =   35.0000     FOR LAYER  29

            CONCENTRATION =   35.0000     FOR LAYER  30

            CONCENTRATION =   35.0000     FOR LAYER  31

            CONCENTRATION =   35.0000     FOR LAYER  32

            CONCENTRATION =   35.0000     FOR LAYER  33

            CONCENTRATION =   35.0000     FOR LAYER  34

            CONCENTRATION =   35.0000     FOR LAYER  35

            CONCENTRATION =   35.0000     FOR LAYER  36

            CONCENTRATION =   35.0000     FOR LAYER  37

            CONCENTRATION =   35.0000     FOR LAYER  38

            CONCENTRATION =   35.0000     FOR LAYER  39

            CONCENTRATION =   35.0000     FOR LAYER  40

 DDF -- DENSITY DEPENDENT FLOW MODULE VERSION 1, 4/4/2016 INPUT READ FROM UNIT   36
 DENSITY OF FRESHWATER (RHOFRESH) =       1000.000
 DENSITY OF STANDARD SOLUTION (RHOSTD) =       1025.000
 CONCENTRATION OF STANDARD SOLUTION (CSTD) =         35.000
 FLAG FOR USING THICKNESS WEIGHTED AVERAGE (ITHICKAV) = 0
 FLAG FOR IMPLICIT TREATMENT OF HEAD TERM (IMPHDD) = 0
 FLAG FOR SHARP INTERFACE MODEL (ISHARP) = 0

 WEL -- WELL PACKAGE, VERSION 7, 5/2/2005 INPUT READ FROM UNIT   20
 # WEL package for MODFLOW-USG generated by Flopy 3.6.0
 No named parameters
 MAXIMUM OF     40 ACTIVE WELLS AT ONE TIME
 CELL-BY-CELL FLOWS WILL BE SAVED ON UNIT   53
 MAXIMUM NUMBER OF ACTIVE WELLS (MXACTW) =     40
 C-B-C FLUX FLAG OR UNIT NUMBER (IWELCB) =  53
 AUXILIARY WELL VARIABLE: C01             


     0 Well parameters

 GHB -- GENERAL-HEAD BOUNDARY PACKAGE, VERSION 7, 5/2/2005
         INPUT READ FROM UNIT   23
 # GHB package for MODFLOW-USG generated by Flopy 3.6.0
 No named parameters
 MAXIMUM OF       40 ACTIVE GHB CELLS AT ONE TIME
 AUXILIARY GHB VARIABLE: C01             


     0 GHB parameters

 SMS -- SPARSE MATRIX SOLVER PACKAGE, VERSION 7, 5/2/2005
         INPUT READ FROM UNIT 32
 # SMS package for MODFLOW-USG generated by Flopy 3.6.0
 No named parameters
  ALL SOLVER INPUT DATA WILL BE READ FROM THE SOLVER INPUT FILE. 
 OUTER ITERATION CONVERGENCE CRITERION (HCLOSE) =    0.100000E-04
 INNER ITERATION CONVERGENCE CRITERION (HICLOSE) =    0.100000E-05
 MAXIMUM NUMBER OF OUTER ITERATIONS (MXITER)     =       500
 MAXIMUM NUMBER OF INNER ITERATIONS (ITER1)      =        50
 SOLVER PRINTOUT INDEX             (IPRSMS)      =         2
 NONLINEAR ITERATION METHOD    (NONLINMETH)      =         2
 LINEAR SOLUTION METHOD           (LINMETH)      =         2
 D-B-D WEIGHT REDUCTION FACTOR      (THETA)      =    0.700000E+00
 D-B-D WEIGHT INCREASE INCREMENT    (KAPPA)      =    0.700000E-01
 D-B-D PREVIOUS HISTORY FACTOR      (GAMMA)      =    0.300000E+00
 MOMENTUM TERM                  (AMOMENTUM)      =    0.100000E+00
 MAXIMUM NUMBER OF BACKTRACKS    (NUMTRACK)      =       200
 BACKTRACKING TOLERANCE FACTOR       (BTOL)      =    0.210000E+01
 BACKTRACKING REDUCTION FACTOR     (BREDUC)      =    0.100000E+00
 BACKTRACKING RESIDUAL LIMIT      (RES_LIM)      =    0.100000E+01
 TRUNCATED NEWTON FLAG     (ITRUNCNEWTON)      =         0
 ***Newton Linearization will be used***
 
 ***PCGU linear solver will be used***

 PCGU -- UNSTRUCTURED CONJUGATE-GRADIENT SOLUTION PACKAGE, VERSION 7.02, 08/13/2013

              SOLUTION BY THE CONJUGATE-GRADIENT METHOD
 ------------------------------------------------------------------
 MAXIMUM OF    500 CALLS OF SOLUTION ROUTINE
 MAXIMUM OF     50 INTERNAL ITERATIONS PER CALL TO SOLUTION ROUTINE
 LINEAR ACCELERATION METHOD            = BCGS      
 MATRIX PRECONDITIONING TYPE           = MOD. INCOMPLETE LU  
 MATRIX SCALING APPROACH               = NO SCALING          
 MATRIX REORDERING APPROACH            = ORIGINAL ORDERING        
 HEAD CHANGE CRITERION FOR CLOSURE     =    0.10000E-05
 RESIDUAL CHANGE CRITERION FOR CLOSURE =    0.10000E+00
 RELAXATION FACTOR                     =    0.10000E+01
  ONLY USED WITH MILU0 PRECONDITIONER


 
1
                            STRESS PERIOD NO.     1, LENGTH =   1.000000    
                            -----------------------------------------------

                              NUMBER OF TIME STEPS =         1

                               MULTIPLIER FOR DELT =     1.000

                            INITIAL TIME STEP SIZE =   1.000000    

 WEL -- WELL PACKAGE, VERSION 7, 5/2/2005 INPUT READ FROM UNIT   20

 WELL NO.      NODE       STRESS FACTOR         C01             
 ---------------------------------------------------------------
        1            1      0.1426           35.00    
        2           81      0.1426           35.00    
        3          161      0.1426           35.00    
        4          241      0.1426           35.00    
        5          321      0.1426           35.00    
        6          401      0.1426           35.00    
        7          481      0.1426           35.00    
        8          561      0.1426           35.00    
        9          641      0.1426           35.00    
       10          721      0.1426           35.00    
       11          801      0.1426           35.00    
       12          881      0.1426           35.00    
       13          961      0.1426           35.00    
       14         1041      0.1426           35.00    
       15         1121      0.1426           35.00    
       16         1201      0.1426           35.00    
       17         1281      0.1426           35.00    
       18         1361      0.1426           35.00    
       19         1441      0.1426           35.00    
       20         1521      0.1426           35.00    
       21         1601      0.1426           35.00    
       22         1681      0.1426           35.00    
       23         1761      0.1426           35.00    
       24         1841      0.1426           35.00    
       25         1921      0.1426           35.00    
       26         2001      0.1426           35.00    
       27         2081      0.1426           35.00    
       28         2161      0.1426           35.00    
       29         2241      0.1426           35.00    
       30         2321      0.1426           35.00    
       31         2401      0.1426           35.00    
       32         2481      0.1426           35.00    
       33         2561      0.1426           35.00    
       34         2641      0.1426           35.00    
       35         2721      0.1426           35.00    
       36         2801      0.1426           35.00    
       37         2881      0.1426           35.00    
       38         2961      0.1426           35.00    
       39         3041      0.1426           35.00    
       40         3121      0.1426           35.00    

     40 WELLS

 GHB -- GENERAL-HEAD BOUNDARY PACKAGE, VERSION 7, 5/2/2005
         INPUT READ FROM UNIT   23

 BOUND NO.     NODE         STAGE         CONDUCTANCE         C01             
 -----------------------------------------------------------------------------
        1           80       1.000           1728.           35.00    
        2          160       1.000           1728.           35.00    
        3          240       1.000           1728.           35.00    
        4          320       1.000           1728.           35.00    
        5          400       1.000           1728.           35.00    
        6          480       1.000           1728.           35.00    
        7          560       1.000           1728.           35.00    
        8          640       1.000           1728.           35.00    
        9          720       1.000           1728.           35.00    
       10          800       1.000           1728.           35.00    
       11          880       1.000           1728.           35.00    
       12          960       1.000           1728.           35.00    
       13         1040       1.000           1728.           35.00    
       14         1120       1.000           1728.           35.00    
       15         1200       1.000           1728.           35.00    
       16         1280       1.000           1728.           35.00    
       17         1360       1.000           1728.           35.00    
       18         1440       1.000           1728.           35.00    
       19         1520       1.000           1728.           35.00    
       20         1600       1.000           1728.           35.00    
       21         1680       1.000           1728.           35.00    
       22         1760       1.000           1728.           35.00    
       23         1840       1.000           1728.           35.00    
       24         1920       1.000           1728.           35.00    
       25         2000       1.000           1728.           35.00    
       26         2080       1.000           1728.           35.00    
       27         2160       1.000           1728.           35.00    
       28         2240       1.000           1728.           35.00    
       29         2320       1.000           1728.           35.00    
       30         2400       1.000           1728.           35.00    
       31         2480       1.000           1728.           35.00    
       32         2560       1.000           1728.           35.00    
       33         2640       1.000           1728.           35.00    
       34         2720       1.000           1728.           35.00    
       35         2800       1.000           1728.           35.00    
       36         2880       1.000           1728.           35.00    
       37         2960       1.000           1728.           35.00    
       38         3040       1.000           1728.           35.00    
       39         3120       1.000           1728.           35.00    
       40         3200       1.000           1728.           35.00    

       40 GHB CELLS
 -------------------------------------------------------------------------------------
 
 SOLVING FOR HEAD 

 Outer-Iteration  Inner-Iteration  Backtracking  Number of        Incoming       Outgoing      Cutoff     Maximum Head Change      Maximum Head Change
     Number           Count           Flag       Backtracks       Residual       Residual      Residual            Value               Location
        1                             0             0          0.812820         0.812820       -1.00000    
        1               21                                                                                       0.127995E-01               3121           GWF-node number
        2                             0             0          0.147813E-06     0.147813E-06   -1.00000    
        2                1                                                                                      -0.518790E-06               2505           GWF-node number


     2 CALLS TO SPARSE MATRIX SOLVER PACKAGE  IN FLOW TIME STEP       1 STRESS PERIOD       1

 TOTAL OF       2OUTER ITERATIONS
  MAXIMUM CHANGE FOR EACH ITERATION:
   MAX. CHANGE        NODE  MAX. CHANGE        NODE  MAX. CHANGE        NODE  MAX. CHANGE        NODE  MAX. CHANGE        NODE
 ------------------------------------------------------------------------------------------------------------------------------------
   0.12799E-01,       3121 -0.51879E-06,       2505

 OUTPUT CONTROL FOR STRESS PERIOD        1   TIME STEP        1
    PRINT BUDGET
    PRINT HEAD FOR ALL LAYERS
    SAVE HEAD FOR ALL LAYERS
    SAVE BUDGET
    SAVE CONC FOR ALL LAYERS
 UBDSV1U SAVING " DENSITY STORAGE" ON UNIT  53 AT TIME STEP      1, STRESS PERIOD      1
 UBDSV2U SAVING "   CONSTANT HEAD" ON UNIT  53 AT TIME STEP      1, STRESS PERIOD      1
 UBDSV1U SAVING "   FLOW JA FACE " ON UNIT  53 AT TIME STEP      1, STRESS PERIOD      1
 UBDSV4U SAVING "           WELLS" ON UNIT  53 AT TIME STEP      1, STRESS PERIOD      1
1
             HEADU IN LAYER       1 AT END OF TIME STEP       1 IN STRESS PERIOD       1 STRESS TIME    1.00000     TOTAL TIME    1.00000    
  -----------------------------------------------------------------------------------------------------------------------------------------
        1..    1.013       1.013       1.012       1.012       1.012       1.012       1.012       1.012       1.012       1.011    
       11..    1.011       1.011       1.011       1.011       1.011       1.010       1.010       1.010       1.010       1.010    
       21..    1.010       1.009       1.009       1.009       1.009       1.009       1.009       1.008       1.008       1.008    
       31..    1.008       1.008       1.008       1.007       1.007       1.007       1.007       1.007       1.007       1.007    
       41..    1.006       1.006       1.006       1.006       1.006       1.006       1.005       1.005       1.005       1.005    
       51..    1.005       1.005       1.004       1.004       1.004       1.004       1.004       1.004       1.003       1.003    
       61..    1.003       1.003       1.003       1.003       1.002       1.002       1.002       1.002       1.002       1.002    
       71..    1.002       1.001       1.001       1.001       1.001       1.001       1.001       1.000       1.000       1.000    
1
             HEADU IN LAYER       2 AT END OF TIME STEP       1 IN STRESS PERIOD       1 STRESS TIME    1.00000     TOTAL TIME    1.00000    
  -----------------------------------------------------------------------------------------------------------------------------------------
       81..    1.013       1.013       1.012       1.012       1.012       1.012       1.012       1.012       1.012       1.011    
       91..    1.011       1.011       1.011       1.011       1.011       1.010       1.010       1.010       1.010       1.010    
      101..    1.010       1.009       1.009       1.009       1.009       1.009       1.009       1.008       1.008       1.008    
      111..    1.008       1.008       1.008       1.007       1.007       1.007       1.007       1.007       1.007       1.007    
      121..    1.006       1.006       1.006       1.006       1.006       1.006       1.005       1.005       1.005       1.005    
      131..    1.005       1.005       1.004       1.004       1.004       1.004       1.004       1.004       1.003       1.003    
      141..    1.003       1.003       1.003       1.003       1.002       1.002       1.002       1.002       1.002       1.002    
      151..    1.002       1.001       1.001       1.001       1.001       1.001       1.001       1.000       1.000       1.000    
1
             HEADU IN LAYER       3 AT END OF TIME STEP       1 IN STRESS PERIOD       1 STRESS TIME    1.00000     TOTAL TIME    1.00000    
  -----------------------------------------------------------------------------------------------------------------------------------------
      161..    1.013       1.013       1.012       1.012       1.012       1.012       1.012       1.012       1.012       1.011    
      171..    1.011       1.011       1.011       1.011       1.011       1.010       1.010       1.010       1.010       1.010    
      181..    1.010       1.009       1.009       1.009       1.009       1.009       1.009       1.008       1.008       1.008    
      191..    1.008       1.008       1.008       1.007       1.007       1.007       1.007       1.007       1.007       1.007    
      201..    1.006       1.006       1.006       1.006       1.006       1.006       1.005       1.005       1.005       1.005    
      211..    1.005       1.005       1.004       1.004       1.004       1.004       1.004       1.004       1.003       1.003    
      221..    1.003       1.003       1.003       1.003       1.002       1.002       1.002       1.002       1.002       1.002    
      231..    1.002       1.001       1.001       1.001       1.001       1.001       1.001       1.000       1.000       1.000    
1
             HEADU IN LAYER       4 AT END OF TIME STEP       1 IN STRESS PERIOD       1 STRESS TIME    1.00000     TOTAL TIME    1.00000    
  -----------------------------------------------------------------------------------------------------------------------------------------
      241..    1.013       1.013       1.012       1.012       1.012       1.012       1.012       1.012       1.012       1.011    
      251..    1.011       1.011       1.011       1.011       1.011       1.010       1.010       1.010       1.010       1.010    
      261..    1.010       1.009       1.009       1.009       1.009       1.009       1.009       1.008       1.008       1.008    
      271..    1.008       1.008       1.008       1.007       1.007       1.007       1.007       1.007       1.007       1.007    
      281..    1.006       1.006       1.006       1.006       1.006       1.006       1.005       1.005       1.005       1.005    
      291..    1.005       1.005       1.004       1.004       1.004       1.004       1.004       1.004       1.003       1.003    
      301..    1.003       1.003       1.003       1.003       1.002       1.002       1.002       1.002       1.002       1.002    
      311..    1.002       1.001       1.001       1.001       1.001       1.001       1.001       1.000       1.000       1.000    
1
             HEADU IN LAYER       5 AT END OF TIME STEP       1 IN STRESS PERIOD       1 STRESS TIME    1.00000     TOTAL TIME    1.00000    
  -----------------------------------------------------------------------------------------------------------------------------------------
      321..    1.013       1.013       1.012       1.012       1.012       1.012       1.012       1.012       1.012       1.011    
      331..    1.011       1.011       1.011       1.011       1.011       1.010       1.010       1.010       1.010       1.010    
      341..    1.010       1.009       1.009       1.009       1.009       1.009       1.009       1.008       1.008       1.008    
      351..    1.008       1.008       1.008       1.007       1.007       1.007       1.007       1.007       1.007       1.007    
      361..    1.006       1.006       1.006       1.006       1.006       1.006       1.005       1.005       1.005       1.005    
      371..    1.005       1.005       1.004       1.004       1.004       1.004       1.004       1.004       1.003       1.003    
      381..    1.003       1.003       1.003       1.003       1.002       1.002       1.002       1.002       1.002       1.002    
      391..    1.002       1.001       1.001       1.001       1.001       1.001       1.001       1.000       1.000       1.000    
1
             HEADU IN LAYER       6 AT END OF TIME STEP       1 IN STRESS PERIOD       1 STRESS TIME    1.00000     TOTAL TIME    1.00000    
  -----------------------------------------------------------------------------------------------------------------------------------------
      401..    1.013       1.013       1.012       1.012       1.012       1.012       1.012       1.012       1.012       1.011    
      411..    1.011       1.011       1.011       1.011       1.011       1.010       1.010       1.010       1.010       1.010    
      421..    1.010       1.009       1.009       1.009       1.009       1.009       1.009       1.008       1.008       1.008    
      431..    1.008       1.008       1.008       1.007       1.007       1.007       1.007       1.007       1.007       1.007    
      441..    1.006       1.006       1.006       1.006       1.006       1.006       1.005       1.005       1.005       1.005    
      451..    1.005       1.005       1.004       1.004       1.004       1.004       1.004       1.004       1.003       1.003    
      461..    1.003       1.003       1.003       1.003       1.002       1.002       1.002       1.002       1.002       1.002    
      471..    1.002       1.001       1.001       1.001       1.001       1.001       1.001       1.000       1.000       1.000    
1
             HEADU IN LAYER       7 AT END OF TIME STEP       1 IN STRESS PERIOD       1 STRESS TIME    1.00000     TOTAL TIME    1.00000    
  -----------------------------------------------------------------------------------------------------------------------------------------
      481..    1.013       1.013       1.012       1.012       1.012       1.012       1.012       1.012       1.012       1.011    
      491..    1.011       1.011       1.011       1.011       1.011       1.010       1.010       1.010       1.010       1.010    
      501..    1.010       1.009       1.009       1.009       1.009       1.009       1.009       1.008       1.008       1.008    
      511..    1.008       1.008       1.008       1.007       1.007       1.007       1.007       1.007       1.007       1.007    
      521..    1.006       1.006       1.006       1.006       1.006       1.006       1.005       1.005       1.005       1.005    
      531..    1.005       1.005       1.004       1.004       1.004       1.004       1.004       1.004       1.003       1.003    
      541..    1.003       1.003       1.003       1.003       1.002       1.002       1.002       1.002       1.002       1.002    
      551..    1.002       1.001       1.001       1.001       1.001       1.001       1.001       1.000       1.000       1.000    
1
             HEADU IN LAYER       8 AT END OF TIME STEP       1 IN STRESS PERIOD       1 STRESS TIME    1.00000     TOTAL TIME    1.00000    
  -----------------------------------------------------------------------------------------------------------------------------------------
      561..    1.013       1.013       1.012       1.012       1.012       1.012       1.012       1.012       1.012       1.011    
      571..    1.011       1.011       1.011       1.011       1.011       1.010       1.010       1.010       1.010       1.010    
      581..    1.010       1.009       1.009       1.009       1.009       1.009       1.009       1.008       1.008       1.008    
      591..    1.008       1.008       1.008       1.007       1.007       1.007       1.007       1.007       1.007       1.007    
      601..    1.006       1.006       1.006       1.006       1.006       1.006       1.005       1.005       1.005       1.005    
      611..    1.005       1.005       1.004       1.004       1.004       1.004       1.004       1.004       1.003       1.003    
      621..    1.003       1.003       1.003       1.003       1.002       1.002       1.002       1.002       1.002       1.002    
      631..    1.002       1.001       1.001       1.001       1.001       1.001       1.001       1.000       1.000       1.000    
1
             HEADU IN LAYER       9 AT END OF TIME STEP       1 IN STRESS PERIOD       1 STRESS TIME    1.00000     TOTAL TIME    1.00000    
  -----------------------------------------------------------------------------------------------------------------------------------------
      641..    1.013       1.013       1.012       1.012       1.012       1.012       1.012       1.012       1.012       1.011    
      651..    1.011       1.011       1.011       1.011       1.011       1.010       1.010       1.010       1.010       1.010    
      661..    1.010       1.009       1.009       1.009       1.009       1.009       1.009       1.008       1.008       1.008    
      671..    1.008       1.008       1.008       1.007       1.007       1.007       1.007       1.007       1.007       1.007    
      681..    1.006       1.006       1.006       1.006       1.006       1.006       1.005       1.005       1.005       1.005    
      691..    1.005       1.005       1.004       1.004       1.004       1.004       1.004       1.004       1.003       1.003    
      701..    1.003       1.003       1.003       1.003       1.002       1.002       1.002       1.002       1.002       1.002    
      711..    1.002       1.001       1.001       1.001       1.001       1.001       1.001       1.000       1.000       1.000    
1
             HEADU IN LAYER      10 AT END OF TIME STEP       1 IN STRESS PERIOD       1 STRESS TIME    1.00000     TOTAL TIME    1.00000    
  -----------------------------------------------------------------------------------------------------------------------------------------
      721..    1.013       1.013       1.012       1.012       1.012       1.012       1.012       1.012       1.012       1.011    
      731..    1.011       1.011       1.011       1.011       1.011       1.010       1.010       1.010       1.010       1.010    
      741..    1.010       1.009       1.009       1.009       1.009       1.009       1.009       1.008       1.008       1.008    
      751..    1.008       1.008       1.008       1.007       1.007       1.007       1.007       1.007       1.007       1.007    
      761..    1.006       1.006       1.006       1.006       1.006       1.006       1.005       1.005       1.005       1.005    
      771..    1.005       1.005       1.004       1.004       1.004       1.004       1.004       1.004       1.003       1.003    
      781..    1.003       1.003       1.003       1.003       1.002       1.002       1.002       1.002       1.002       1.002    
      791..    1.002       1.001       1.001       1.001       1.001       1.001       1.001       1.000       1.000       1.000    
1
             HEADU IN LAYER      11 AT END OF TIME STEP       1 IN STRESS PERIOD       1 STRESS TIME    1.00000     TOTAL TIME    1.00000    
  -----------------------------------------------------------------------------------------------------------------------------------------
      801..    1.013       1.013       1.012       1.012       1.012       1.012       1.012       1.012       1.012       1.011    
      811..    1.011       1.011       1.011       1.011       1.011       1.010       1.010       1.010       1.010       1.010    
      821..    1.010       1.009       1.009       1.009       1.009       1.009       1.009       1.008       1.008       1.008    
      831..    1.008       1.008       1.008       1.007       1.007       1.007       1.007       1.007       1.007       1.007    
      841..    1.006       1.006       1.006       1.006       1.006       1.006       1.005       1.005       1.005       1.005    
      851..    1.005       1.005       1.004       1.004       1.004       1.004       1.004       1.004       1.003       1.003    
      861..    1.003       1.003       1.003       1.003       1.002       1.002       1.002       1.002       1.002       1.002    
      871..    1.002       1.001       1.001       1.001       1.001       1.001       1.001       1.000       1.000       1.000    
1
             HEADU IN LAYER      12 AT END OF TIME STEP       1 IN STRESS PERIOD       1 STRESS TIME    1.00000     TOTAL TIME    1.00000    
  -----------------------------------------------------------------------------------------------------------------------------------------
      881..    1.013       1.013       1.012       1.012       1.012       1.012       1.012       1.012       1.012       1.011    
      891..    1.011       1.011       1.011       1.011       1.011       1.010       1.010       1.010       1.010       1.010    
      901..    1.010       1.009       1.009       1.009       1.009       1.009       1.009       1.008       1.008       1.008    
      911..    1.008       1.008       1.008       1.007       1.007       1.007       1.007       1.007       1.007       1.007    
      921..    1.006       1.006       1.006       1.006       1.006       1.006       1.005       1.005       1.005       1.005    
      931..    1.005       1.005       1.004       1.004       1.004       1.004       1.004       1.004       1.003       1.003    
      941..    1.003       1.003       1.003       1.003       1.002       1.002       1.002       1.002       1.002       1.002    
      951..    1.002       1.001       1.001       1.001       1.001       1.001       1.001       1.000       1.000       1.000    
1
             HEADU IN LAYER      13 AT END OF TIME STEP       1 IN STRESS PERIOD       1 STRESS TIME    1.00000     TOTAL TIME    1.00000    
  -----------------------------------------------------------------------------------------------------------------------------------------
      961..    1.013       1.013       1.012       1.012       1.012       1.012       1.012       1.012       1.012       1.011    
      971..    1.011       1.011       1.011       1.011       1.011       1.010       1.010       1.010       1.010       1.010    
      981..    1.010       1.009       1.009       1.009       1.009       1.009       1.009       1.008       1.008       1.008    
      991..    1.008       1.008       1.008       1.007       1.007       1.007       1.007       1.007       1.007       1.007    
     1001..    1.006       1.006       1.006       1.006       1.006       1.006       1.005       1.005       1.005       1.005    
     1011..    1.005       1.005       1.004       1.004       1.004       1.004       1.004       1.004       1.003       1.003    
     1021..    1.003       1.003       1.003       1.003       1.002       1.002       1.002       1.002       1.002       1.002    
     1031..    1.002       1.001       1.001       1.001       1.001       1.001       1.001       1.000       1.000       1.000    
1
             HEADU IN LAYER      14 AT END OF TIME STEP       1 IN STRESS PERIOD       1 STRESS TIME    1.00000     TOTAL TIME    1.00000    
  -----------------------------------------------------------------------------------------------------------------------------------------
     1041..    1.013       1.013       1.012       1.012       1.012       1.012       1.012       1.012       1.012       1.011    
     1051..    1.011       1.011       1.011       1.011       1.011       1.010       1.010       1.010       1.010       1.010    
     1061..    1.010       1.009       1.009       1.009       1.009       1.009       1.009       1.008       1.008       1.008    
     1071..    1.008       1.008       1.008       1.007       1.007       1.007       1.007       1.007       1.007       1.007    
     1081..    1.006       1.006       1.006       1.006       1.006       1.006       1.005       1.005       1.005       1.005    
     1091..    1.005       1.005       1.004       1.004       1.004       1.004       1.004       1.004       1.003       1.003    
     1101..    1.003       1.003       1.003       1.003       1.002       1.002       1.002       1.002       1.002       1.002    
     1111..    1.002       1.001       1.001       1.001       1.001       1.001       1.001       1.000       1.000       1.000    
1
             HEADU IN LAYER      15 AT END OF TIME STEP       1 IN STRESS PERIOD       1 STRESS TIME    1.00000     TOTAL TIME    1.00000    
  -----------------------------------------------------------------------------------------------------------------------------------------
     1121..    1.013       1.013       1.012       1.012       1.012       1.012       1.012       1.012       1.012       1.011    
     1131..    1.011       1.011       1.011       1.011       1.011       1.010       1.010       1.010       1.010       1.010    
     1141..    1.010       1.009       1.009       1.009       1.009       1.009       1.009       1.008       1.008       1.008    
     1151..    1.008       1.008       1.008       1.007       1.007       1.007       1.007       1.007       1.007       1.007    
     1161..    1.006       1.006       1.006       1.006       1.006       1.006       1.005       1.005       1.005       1.005    
     1171..    1.005       1.005       1.004       1.004       1.004       1.004       1.004       1.004       1.003       1.003    
     1181..    1.003       1.003       1.003       1.003       1.002       1.002       1.002       1.002       1.002       1.002    
     1191..    1.002       1.001       1.001       1.001       1.001       1.001       1.001       1.000       1.000       1.000    
1
             HEADU IN LAYER      16 AT END OF TIME STEP       1 IN STRESS PERIOD       1 STRESS TIME    1.00000     TOTAL TIME    1.00000    
  -----------------------------------------------------------------------------------------------------------------------------------------
     1201..    1.013       1.013       1.012       1.012       1.012       1.012       1.012       1.012       1.012       1.011    
     1211..    1.011       1.011       1.011       1.011       1.011       1.010       1.010       1.010       1.010       1.010    
     1221..    1.010       1.009       1.009       1.009       1.009       1.009       1.009       1.008       1.008       1.008    
     1231..    1.008       1.008       1.008       1.007       1.007       1.007       1.007       1.007       1.007       1.007    
     1241..    1.006       1.006       1.006       1.006       1.006       1.006       1.005       1.005       1.005       1.005    
     1251..    1.005       1.005       1.004       1.004       1.004       1.004       1.004       1.004       1.003       1.003    
     1261..    1.003       1.003       1.003       1.003       1.002       1.002       1.002       1.002       1.002       1.002    
     1271..    1.002       1.001       1.001       1.001       1.001       1.001       1.001       1.000       1.000       1.000    
1
             HEADU IN LAYER      17 AT END OF TIME STEP       1 IN STRESS PERIOD       1 STRESS TIME    1.00000     TOTAL TIME    1.00000    
  -----------------------------------------------------------------------------------------------------------------------------------------
     1281..    1.013       1.013       1.012       1.012       1.012       1.012       1.012       1.012       1.012       1.011    
     1291..    1.011       1.011       1.011       1.011       1.011       1.010       1.010       1.010       1.010       1.010    
     1301..    1.010       1.009       1.009       1.009       1.009       1.009       1.009       1.008       1.008       1.008    
     1311..    1.008       1.008       1.008       1.007       1.007       1.007       1.007       1.007       1.007       1.007    
     1321..    1.006       1.006       1.006       1.006       1.006       1.006       1.005       1.005       1.005       1.005    
     1331..    1.005       1.005       1.004       1.004       1.004       1.004       1.004       1.004       1.003       1.003    
     1341..    1.003       1.003       1.003       1.003       1.002       1.002       1.002       1.002       1.002       1.002    
     1351..    1.002       1.001       1.001       1.001       1.001       1.001       1.001       1.000       1.000       1.000    
1
             HEADU IN LAYER      18 AT END OF TIME STEP       1 IN STRESS PERIOD       1 STRESS TIME    1.00000     TOTAL TIME    1.00000    
  -----------------------------------------------------------------------------------------------------------------------------------------
     1361..    1.013       1.013       1.012       1.012       1.012       1.012       1.012       1.012       1.012       1.011    
     1371..    1.011       1.011       1.011       1.011       1.011       1.010       1.010       1.010       1.010       1.010    
     1381..    1.010       1.009       1.009       1.009       1.009       1.009       1.009       1.008       1.008       1.008    
     1391..    1.008       1.008       1.008       1.007       1.007       1.007       1.007       1.007       1.007       1.007    
     1401..    1.006       1.006       1.006       1.006       1.006       1.006       1.005       1.005       1.005       1.005    
     1411..    1.005       1.005       1.004       1.004       1.004       1.004       1.004       1.004       1.003       1.003    
     1421..    1.003       1.003       1.003       1.003       1.002       1.002       1.002       1.002       1.002       1.002    
     1431..    1.002       1.001       1.001       1.001       1.001       1.001       1.001       1.000       1.000       1.000    
1
             HEADU IN LAYER      19 AT END OF TIME STEP       1 IN STRESS PERIOD       1 STRESS TIME    1.00000     TOTAL TIME    1.00000    
  -----------------------------------------------------------------------------------------------------------------------------------------
     1441..    1.013       1.013       1.012       1.012       1.012       1.012       1.012       1.012       1.012       1.011    
     1451..    1.011       1.011       1.011       1.011       1.011       1.010       1.010       1.010       1.010       1.010    
     1461..    1.010       1.009       1.009       1.009       1.009       1.009       1.009       1.008       1.008       1.008    
     1471..    1.008       1.008       1.008       1.007       1.007       1.007       1.007       1.007       1.007       1.007    
     1481..    1.006       1.006       1.006       1.006       1.006       1.006       1.005       1.005       1.005       1.005    
     1491..    1.005       1.005       1.004       1.004       1.004       1.004       1.004       1.004       1.003       1.003    
     1501..    1.003       1.003       1.003       1.003       1.002       1.002       1.002       1.002       1.002       1.002    
     1511..    1.002       1.001       1.001       1.001       1.001       1.001       1.001       1.000       1.000       1.000    
1
             HEADU IN LAYER      20 AT END OF TIME STEP       1 IN STRESS PERIOD       1 STRESS TIME    1.00000     TOTAL TIME    1.00000    
  -----------------------------------------------------------------------------------------------------------------------------------------
     1521..    1.013       1.013       1.012       1.012       1.012       1.012       1.012       1.012       1.012       1.011    
     1531..    1.011       1.011       1.011       1.011       1.011       1.010       1.010       1.010       1.010       1.010    
     1541..    1.010       1.009       1.009       1.009       1.009       1.009       1.009       1.008       1.008       1.008    
     1551..    1.008       1.008       1.008       1.007       1.007       1.007       1.007       1.007       1.007       1.007    
     1561..    1.006       1.006       1.006       1.006       1.006       1.006       1.005       1.005       1.005       1.005    
     1571..    1.005       1.005       1.004       1.004       1.004       1.004       1.004       1.004       1.003       1.003    
     1581..    1.003       1.003       1.003       1.003       1.002       1.002       1.002       1.002       1.002       1.002    
     1591..    1.002       1.001       1.001       1.001       1.001       1.001       1.001       1.000       1.000       1.000    
1
             HEADU IN LAYER      21 AT END OF TIME STEP       1 IN STRESS PERIOD       1 STRESS TIME    1.00000     TOTAL TIME    1.00000    
  -----------------------------------------------------------------------------------------------------------------------------------------
     1601..    1.013       1.013       1.012       1.012       1.012       1.012       1.012       1.012       1.012       1.011    
     1611..    1.011       1.011       1.011       1.011       1.011       1.010       1.010       1.010       1.010       1.010    
     1621..    1.010       1.009       1.009       1.009       1.009       1.009       1.009       1.008       1.008       1.008    
     1631..    1.008       1.008       1.008       1.007       1.007       1.007       1.007       1.007       1.007       1.007    
     1641..    1.006       1.006       1.006       1.006       1.006       1.006       1.005       1.005       1.005       1.005    
     1651..    1.005       1.005       1.004       1.004       1.004       1.004       1.004       1.004       1.003       1.003    
     1661..    1.003       1.003       1.003       1.003       1.002       1.002       1.002       1.002       1.002       1.002    
     1671..    1.002       1.001       1.001       1.001       1.001       1.001       1.001       1.000       1.000       1.000    
1
             HEADU IN LAYER      22 AT END OF TIME STEP       1 IN STRESS PERIOD       1 STRESS TIME    1.00000     TOTAL TIME    1.00000    
  -----------------------------------------------------------------------------------------------------------------------------------------
     1681..    1.013       1.013       1.012       1.012       1.012       1.012       1.012       1.012       1.012       1.011    
     1691..    1.011       1.011       1.011       1.011       1.011       1.010       1.010       1.010       1.010       1.010    
     1701..    1.010       1.009       1.009       1.009       1.009       1.009       1.009       1.008       1.008       1.008    
     1711..    1.008       1.008       1.008       1.007       1.007       1.007       1.007       1.007       1.007       1.007    
     1721..    1.006       1.006       1.006       1.006       1.006       1.006       1.005       1.005       1.005       1.005    
     1731..    1.005       1.005       1.004       1.004       1.004       1.004       1.004       1.004       1.003       1.003    
     1741..    1.003       1.003       1.003       1.003       1.002       1.002       1.002       1.002       1.002       1.002    
     1751..    1.002       1.001       1.001       1.001       1.001       1.001       1.001       1.000       1.000       1.000    
1
             HEADU IN LAYER      23 AT END OF TIME STEP       1 IN STRESS PERIOD       1 STRESS TIME    1.00000     TOTAL TIME    1.00000    
  -----------------------------------------------------------------------------------------------------------------------------------------
     1761..    1.013       1.013       1.012       1.012       1.012       1.012       1.012       1.012       1.012       1.011    
     1771..    1.011       1.011       1.011       1.011       1.011       1.010       1.010       1.010       1.010       1.010    
     1781..    1.010       1.009       1.009       1.009       1.009       1.009       1.009       1.008       1.008       1.008    
     1791..    1.008       1.008       1.008       1.007       1.007       1.007       1.007       1.007       1.007       1.007    
     1801..    1.006       1.006       1.006       1.006       1.006       1.006       1.005       1.005       1.005       1.005    
     1811..    1.005       1.005       1.004       1.004       1.004       1.004       1.004       1.004       1.003       1.003    
     1821..    1.003       1.003       1.003       1.003       1.002       1.002       1.002       1.002       1.002       1.002    
     1831..    1.002       1.001       1.001       1.001       1.001       1.001       1.001       1.000       1.000       1.000    
1
             HEADU IN LAYER      24 AT END OF TIME STEP       1 IN STRESS PERIOD       1 STRESS TIME    1.00000     TOTAL TIME    1.00000    
  -----------------------------------------------------------------------------------------------------------------------------------------
     1841..    1.013       1.013       1.012       1.012       1.012       1.012       1.012       1.012       1.012       1.011    
     1851..    1.011       1.011       1.011       1.011       1.011       1.010       1.010       1.010       1.010       1.010    
     1861..    1.010       1.009       1.009       1.009       1.009       1.009       1.009       1.008       1.008       1.008    
     1871..    1.008       1.008       1.008       1.007       1.007       1.007       1.007       1.007       1.007       1.007    
     1881..    1.006       1.006       1.006       1.006       1.006       1.006       1.005       1.005       1.005       1.005    
     1891..    1.005       1.005       1.004       1.004       1.004       1.004       1.004       1.004       1.003       1.003    
     1901..    1.003       1.003       1.003       1.003       1.002       1.002       1.002       1.002       1.002       1.002    
     1911..    1.002       1.001       1.001       1.001       1.001       1.001       1.001       1.000       1.000       1.000    
1
             HEADU IN LAYER      25 AT END OF TIME STEP       1 IN STRESS PERIOD       1 STRESS TIME    1.00000     TOTAL TIME    1.00000    
  -----------------------------------------------------------------------------------------------------------------------------------------
     1921..    1.013       1.013       1.012       1.012       1.012       1.012       1.012       1.012       1.012       1.011    
     1931..    1.011       1.011       1.011       1.011       1.011       1.010       1.010       1.010       1.010       1.010    
     1941..    1.010       1.009       1.009       1.009       1.009       1.009       1.009       1.008       1.008       1.008    
     1951..    1.008       1.008       1.008       1.007       1.007       1.007       1.007       1.007       1.007       1.007    
     1961..    1.006       1.006       1.006       1.006       1.006       1.006       1.005       1.005       1.005       1.005    
     1971..    1.005       1.005       1.004       1.004       1.004       1.004       1.004       1.004       1.003       1.003    
     1981..    1.003       1.003       1.003       1.003       1.002       1.002       1.002       1.002       1.002       1.002    
     1991..    1.002       1.001       1.001       1.001       1.001       1.001       1.001       1.000       1.000       1.000    
1
             HEADU IN LAYER      26 AT END OF TIME STEP       1 IN STRESS PERIOD       1 STRESS TIME    1.00000     TOTAL TIME    1.00000    
  -----------------------------------------------------------------------------------------------------------------------------------------
     2001..    1.013       1.013       1.012       1.012       1.012       1.012       1.012       1.012       1.012       1.011    
     2011..    1.011       1.011       1.011       1.011       1.011       1.010       1.010       1.010       1.010       1.010    
     2021..    1.010       1.009       1.009       1.009       1.009       1.009       1.009       1.008       1.008       1.008    
     2031..    1.008       1.008       1.008       1.007       1.007       1.007       1.007       1.007       1.007       1.007    
     2041..    1.006       1.006       1.006       1.006       1.006       1.006       1.005       1.005       1.005       1.005    
     2051..    1.005       1.005       1.004       1.004       1.004       1.004       1.004       1.004       1.003       1.003    
     2061..    1.003       1.003       1.003       1.003       1.002       1.002       1.002       1.002       1.002       1.002    
     2071..    1.002       1.001       1.001       1.001       1.001       1.001       1.001       1.000       1.000       1.000    
1
             HEADU IN LAYER      27 AT END OF TIME STEP       1 IN STRESS PERIOD       1 STRESS TIME    1.00000     TOTAL TIME    1.00000    
  -----------------------------------------------------------------------------------------------------------------------------------------
     2081..    1.013       1.013       1.012       1.012       1.012       1.012       1.012       1.012       1.012       1.011    
     2091..    1.011       1.011       1.011       1.011       1.011       1.010       1.010       1.010       1.010       1.010    
     2101..    1.010       1.009       1.009       1.009       1.009       1.009       1.009       1.008       1.008       1.008    
     2111..    1.008       1.008       1.008       1.007       1.007       1.007       1.007       1.007       1.007       1.007    
     2121..    1.006       1.006       1.006       1.006       1.006       1.006       1.005       1.005       1.005       1.005    
     2131..    1.005       1.005       1.004       1.004       1.004       1.004       1.004       1.004       1.003       1.003    
     2141..    1.003       1.003       1.003       1.003       1.002       1.002       1.002       1.002       1.002       1.002    
     2151..    1.002       1.001       1.001       1.001       1.001       1.001       1.001       1.000       1.000       1.000    
1
             HEADU IN LAYER      28 AT END OF TIME STEP       1 IN STRESS PERIOD       1 STRESS TIME    1.00000     TOTAL TIME    1.00000    
  -----------------------------------------------------------------------------------------------------------------------------------------
     2161..    1.013       1.013       1.012       1.012       1.012       1.012       1.012       1.012       1.012       1.011    
     2171..    1.011       1.011       1.011       1.011       1.011       1.010       1.010       1.010       1.010       1.010    
     2181..    1.010       1.009       1.009       1.009       1.009       1.009       1.009       1.008       1.008       1.008    
     2191..    1.008       1.008       1.008       1.007       1.007       1.007       1.007       1.007       1.007       1.007    
     2201..    1.006       1.006       1.006       1.006       1.006       1.006       1.005       1.005       1.005       1.005    
     2211..    1.005       1.005       1.004       1.004       1.004       1.004       1.004       1.004       1.003       1.003    
     2221..    1.003       1.003       1.003       1.003       1.002       1.002       1.002       1.002       1.002       1.002    
     2231..    1.002       1.001       1.001       1.001       1.001       1.001       1.001       1.000       1.000       1.000    
1
             HEADU IN LAYER      29 AT END OF TIME STEP       1 IN STRESS PERIOD       1 STRESS TIME    1.00000     TOTAL TIME    1.00000    
  -----------------------------------------------------------------------------------------------------------------------------------------
     2241..    1.013       1.013       1.012       1.012       1.012       1.012       1.012       1.012       1.012       1.011    
     2251..    1.011       1.011       1.011       1.011       1.011       1.010       1.010       1.010       1.010       1.010    
     2261..    1.010       1.009       1.009       1.009       1.009       1.009       1.009       1.008       1.008       1.008    
     2271..    1.008       1.008       1.008       1.007       1.007       1.007       1.007       1.007       1.007       1.007    
     2281..    1.006       1.006       1.006       1.006       1.006       1.006       1.005       1.005       1.005       1.005    
     2291..    1.005       1.005       1.004       1.004       1.004       1.004       1.004       1.004       1.003       1.003    
     2301..    1.003       1.003       1.003       1.003       1.002       1.002       1.002       1.002       1.002       1.002    
     2311..    1.002       1.001       1.001       1.001       1.001       1.001       1.001       1.000       1.000       1.000    
1
             HEADU IN LAYER      30 AT END OF TIME STEP       1 IN STRESS PERIOD       1 STRESS TIME    1.00000     TOTAL TIME    1.00000    
  -----------------------------------------------------------------------------------------------------------------------------------------
     2321..    1.013       1.013       1.012       1.012       1.012       1.012       1.012       1.012       1.012       1.011    
     2331..    1.011       1.011       1.011       1.011       1.011       1.010       1.010       1.010       1.010       1.010    
     2341..    1.010       1.009       1.009       1.009       1.009       1.009       1.009       1.008       1.008       1.008    
     2351..    1.008       1.008       1.008       1.007       1.007       1.007       1.007       1.007       1.007       1.007    
     2361..    1.006       1.006       1.006       1.006       1.006       1.006       1.005       1.005       1.005       1.005    
     2371..    1.005       1.005       1.004       1.004       1.004       1.004       1.004       1.004       1.003       1.003    
     2381..    1.003       1.003       1.003       1.003       1.002       1.002       1.002       1.002       1.002       1.002    
     2391..    1.002       1.001       1.001       1.001       1.001       1.001       1.001       1.000       1.000       1.000    
1
             HEADU IN LAYER      31 AT END OF TIME STEP       1 IN STRESS PERIOD       1 STRESS TIME    1.00000     TOTAL TIME    1.00000    
  -----------------------------------------------------------------------------------------------------------------------------------------
     2401..    1.013       1.013       1.012       1.012       1.012       1.012       1.012       1.012       1.012       1.011    
     2411..    1.011       1.011       1.011       1.011       1.011       1.010       1.010       1.010       1.010       1.010    
     2421..    1.010       1.009       1.009       1.009       1.009       1.009       1.009       1.008       1.008       1.008    
     2431..    1.008       1.008       1.008       1.007       1.007       1.007       1.007       1.007       1.007       1.007    
     2441..    1.006       1.006       1.006       1.006       1.006       1.006       1.005       1.005       1.005       1.005    
     2451..    1.005       1.005       1.004       1.004       1.004       1.004       1.004       1.004       1.003       1.003    
     2461..    1.003       1.003       1.003       1.003       1.002       1.002       1.002       1.002       1.002       1.002    
     2471..    1.002       1.001       1.001       1.001       1.001       1.001       1.001       1.000       1.000       1.000    
1
             HEADU IN LAYER      32 AT END OF TIME STEP       1 IN STRESS PERIOD       1 STRESS TIME    1.00000     TOTAL TIME    1.00000    
  -----------------------------------------------------------------------------------------------------------------------------------------
     2481..    1.013       1.013       1.012       1.012       1.012       1.012       1.012       1.012       1.012       1.011    
     2491..    1.011       1.011       1.011       1.011       1.011       1.010       1.010       1.010       1.010       1.010    
     2501..    1.010       1.009       1.009       1.009       1.009       1.009       1.009       1.008       1.008       1.008    
     2511..    1.008       1.008       1.008       1.007       1.007       1.007       1.007       1.007       1.007       1.007    
     2521..    1.006       1.006       1.006       1.006       1.006       1.006       1.005       1.005       1.005       1.005    
     2531..    1.005       1.005       1.004       1.004       1.004       1.004       1.004       1.004       1.003       1.003    
     2541..    1.003       1.003       1.003       1.003       1.002       1.002       1.002       1.002       1.002       1.002    
     2551..    1.002       1.001       1.001       1.001       1.001       1.001       1.001       1.000       1.000       1.000    
1
             HEADU IN LAYER      33 AT END OF TIME STEP       1 IN STRESS PERIOD       1 STRESS TIME    1.00000     TOTAL TIME    1.00000    
  -----------------------------------------------------------------------------------------------------------------------------------------
     2561..    1.013       1.013       1.012       1.012       1.012       1.012       1.012       1.012       1.012       1.011    
     2571..    1.011       1.011       1.011       1.011       1.011       1.010       1.010       1.010       1.010       1.010    
     2581..    1.010       1.009       1.009       1.009       1.009       1.009       1.009       1.008       1.008       1.008    
     2591..    1.008       1.008       1.008       1.007       1.007       1.007       1.007       1.007       1.007       1.007    
     2601..    1.006       1.006       1.006       1.006       1.006       1.006       1.005       1.005       1.005       1.005    
     2611..    1.005       1.005       1.004       1.004       1.004       1.004       1.004       1.004       1.003       1.003    
     2621..    1.003       1.003       1.003       1.003       1.002       1.002       1.002       1.002       1.002       1.002    
     2631..    1.002       1.001       1.001       1.001       1.001       1.001       1.001       1.000       1.000       1.000    
1
             HEADU IN LAYER      34 AT END OF TIME STEP       1 IN STRESS PERIOD       1 STRESS TIME    1.00000     TOTAL TIME    1.00000    
  -----------------------------------------------------------------------------------------------------------------------------------------
     2641..    1.013       1.013       1.012       1.012       1.012       1.012       1.012       1.012       1.012       1.011    
     2651..    1.011       1.011       1.011       1.011       1.011       1.010       1.010       1.010       1.010       1.010    
     2661..    1.010       1.009       1.009       1.009       1.009       1.009       1.009       1.008       1.008       1.008    
     2671..    1.008       1.008       1.008       1.007       1.007       1.007       1.007       1.007       1.007       1.007    
     2681..    1.006       1.006       1.006       1.006       1.006       1.006       1.005       1.005       1.005       1.005    
     2691..    1.005       1.005       1.004       1.004       1.004       1.004       1.004       1.004       1.003       1.003    
     2701..    1.003       1.003       1.003       1.003       1.002       1.002       1.002       1.002       1.002       1.002    
     2711..    1.002       1.001       1.001       1.001       1.001       1.001       1.001       1.000       1.000       1.000    
1
             HEADU IN LAYER      35 AT END OF TIME STEP       1 IN STRESS PERIOD       1 STRESS TIME    1.00000     TOTAL TIME    1.00000    
  -----------------------------------------------------------------------------------------------------------------------------------------
     2721..    1.013       1.013       1.012       1.012       1.012       1.012       1.012       1.012       1.012       1.011    
     2731..    1.011       1.011       1.011       1.011       1.011       1.010       1.010       1.010       1.010       1.010    
     2741..    1.010       1.009       1.009       1.009       1.009       1.009       1.009       1.008       1.008       1.008    
     2751..    1.008       1.008       1.008       1.007       1.007       1.007       1.007       1.007       1.007       1.007    
     2761..    1.006       1.006       1.006       1.006       1.006       1.006       1.005       1.005       1.005       1.005    
     2771..    1.005       1.005       1.004       1.004       1.004       1.004       1.004       1.004       1.003       1.003    
     2781..    1.003       1.003       1.003       1.003       1.002       1.002       1.002       1.002       1.002       1.002    
     2791..    1.002       1.001       1.001       1.001       1.001       1.001       1.001       1.000       1.000       1.000    
1
             HEADU IN LAYER      36 AT END OF TIME STEP       1 IN STRESS PERIOD       1 STRESS TIME    1.00000     TOTAL TIME    1.00000    
  -----------------------------------------------------------------------------------------------------------------------------------------
     2801..    1.013       1.013       1.012       1.012       1.012       1.012       1.012       1.012       1.012       1.011    
     2811..    1.011       1.011       1.011       1.011       1.011       1.010       1.010       1.010       1.010       1.010    
     2821..    1.010       1.009       1.009       1.009       1.009       1.009       1.009       1.008       1.008       1.008    
     2831..    1.008       1.008       1.008       1.007       1.007       1.007       1.007       1.007       1.007       1.007    
     2841..    1.006       1.006       1.006       1.006       1.006       1.006       1.005       1.005       1.005       1.005    
     2851..    1.005       1.005       1.004       1.004       1.004       1.004       1.004       1.004       1.003       1.003    
     2861..    1.003       1.003       1.003       1.003       1.002       1.002       1.002       1.002       1.002       1.002    
     2871..    1.002       1.001       1.001       1.001       1.001       1.001       1.001       1.000       1.000       1.000    
1
             HEADU IN LAYER      37 AT END OF TIME STEP       1 IN STRESS PERIOD       1 STRESS TIME    1.00000     TOTAL TIME    1.00000    
  -----------------------------------------------------------------------------------------------------------------------------------------
     2881..    1.013       1.013       1.012       1.012       1.012       1.012       1.012       1.012       1.012       1.011    
     2891..    1.011       1.011       1.011       1.011       1.011       1.010       1.010       1.010       1.010       1.010    
     2901..    1.010       1.009       1.009       1.009       1.009       1.009       1.009       1.008       1.008       1.008    
     2911..    1.008       1.008       1.008       1.007       1.007       1.007       1.007       1.007       1.007       1.007    
     2921..    1.006       1.006       1.006       1.006       1.006       1.006       1.005       1.005       1.005       1.005    
     2931..    1.005       1.005       1.004       1.004       1.004       1.004       1.004       1.004       1.003       1.003    
     2941..    1.003       1.003       1.003       1.003       1.002       1.002       1.002       1.002       1.002       1.002    
     2951..    1.002       1.001       1.001       1.001       1.001       1.001       1.001       1.000       1.000       1.000    
1
             HEADU IN LAYER      38 AT END OF TIME STEP       1 IN STRESS PERIOD       1 STRESS TIME    1.00000     TOTAL TIME    1.00000    
  -----------------------------------------------------------------------------------------------------------------------------------------
     2961..    1.013       1.013       1.012       1.012       1.012       1.012       1.012       1.012       1.012       1.011    
     2971..    1.011       1.011       1.011       1.011       1.011       1.010       1.010       1.010       1.010       1.010    
     2981..    1.010       1.009       1.009       1.009       1.009       1.009       1.009       1.008       1.008       1.008    
     2991..    1.008       1.008       1.008       1.007       1.007       1.007       1.007       1.007       1.007       1.007    
     3001..    1.006       1.006       1.006       1.006       1.006       1.006       1.005       1.005       1.005       1.005    
     3011..    1.005       1.005       1.004       1.004       1.004       1.004       1.004       1.004       1.003       1.003    
     3021..    1.003       1.003       1.003       1.003       1.002       1.002       1.002       1.002       1.002       1.002    
     3031..    1.002       1.001       1.001       1.001       1.001       1.001       1.001       1.000       1.000       1.000    
1
             HEADU IN LAYER      39 AT END OF TIME STEP       1 IN STRESS PERIOD       1 STRESS TIME    1.00000     TOTAL TIME    1.00000    
  -----------------------------------------------------------------------------------------------------------------------------------------
     3041..    1.013       1.013       1.012       1.012       1.012       1.012       1.012       1.012       1.012       1.011    
     3051..    1.011       1.011       1.011       1.011       1.011       1.010       1.010       1.010       1.010       1.010    
     3061..    1.010       1.009       1.009       1.009       1.009       1.009       1.009       1.008       1.008       1.008    
     3071..    1.008       1.008       1.008       1.007       1.007       1.007       1.007       1.007       1.007       1.007    
     3081..    1.006       1.006       1.006       1.006       1.006       1.006       1.005       1.005       1.005       1.005    
     3091..    1.005       1.005       1.004       1.004       1.004       1.004       1.004       1.004       1.003       1.003    
     3101..    1.003       1.003       1.003       1.003       1.002       1.002       1.002       1.002       1.002       1.002    
     3111..    1.002       1.001       1.001       1.001       1.001       1.001       1.001       1.000       1.000       1.000    
1
             HEADU IN LAYER      40 AT END OF TIME STEP       1 IN STRESS PERIOD       1 STRESS TIME    1.00000     TOTAL TIME    1.00000    
  -----------------------------------------------------------------------------------------------------------------------------------------
     3121..    1.013       1.013       1.012       1.012       1.012       1.012       1.012       1.012       1.012       1.011    
     3131..    1.011       1.011       1.011       1.011       1.011       1.010       1.010       1.010       1.010       1.010    
     3141..    1.010       1.009       1.009       1.009       1.009       1.009       1.009       1.008       1.008       1.008    
     3151..    1.008       1.008       1.008       1.007       1.007       1.007       1.007       1.007       1.007       1.007    
     3161..    1.006       1.006       1.006       1.006       1.006       1.006       1.005       1.005       1.005       1.005    
     3171..    1.005       1.005       1.004       1.004       1.004       1.004       1.004       1.004       1.003       1.003    
     3181..    1.003       1.003       1.003       1.003       1.002       1.002       1.002       1.002       1.002       1.002    
     3191..    1.002       1.001       1.001       1.001       1.001       1.001       1.001       1.000       1.000       1.000    

 HEAD WILL BE SAVED ON UNIT       51 AT END OF TIME STEP        1, STRESS PERIOD        1
1
  VOLUMETRIC BUDGET FOR ENTIRE MODEL AT END OF TIME STEP       1 IN STRESS PERIOD       1
  ---------------------------------------------------------------------------------------

     CUMULATIVE VOLUMES      L**3       RATES FOR THIS TIME STEP      L**3/T
     ------------------                 ------------------------

           IN:                                      IN:
           ---                                      ---
             STORAGE =           0.0000               STORAGE =           0.0000
     DENSITY STORAGE =           0.0000       DENSITY STORAGE =           0.0000
       CONSTANT HEAD =           0.0000         CONSTANT HEAD =           0.0000
               WELLS =           5.7020                 WELLS =           5.7020
     HEAD DEP BOUNDS =           0.0000       HEAD DEP BOUNDS =           0.0000

            TOTAL IN =           5.7020              TOTAL IN =           5.7020

          OUT:                                     OUT:
          ----                                     ----
             STORAGE =           0.0000               STORAGE =           0.0000
     DENSITY STORAGE =           0.0000       DENSITY STORAGE =           0.0000
       CONSTANT HEAD =           0.0000         CONSTANT HEAD =           0.0000
               WELLS =           0.0000                 WELLS =           0.0000
     HEAD DEP BOUNDS =           5.7020       HEAD DEP BOUNDS =           5.7020

           TOTAL OUT =           5.7020             TOTAL OUT =           5.7020

            IN - OUT =      -2.6107E-05              IN - OUT =      -2.6226E-05

 PERCENT DISCREPANCY =          -0.00     PERCENT DISCREPANCY =          -0.00






          TIME SUMMARY AT END OF TIME STEP         1 IN STRESS PERIOD         1
                    SECONDS     MINUTES      HOURS       DAYS        YEARS
                    -----------------------------------------------------------
   TIME STEP LENGTH  86400.      1440.0      24.000      1.0000     2.73785E-03
 STRESS PERIOD TIME  86400.      1440.0      24.000      1.0000     2.73785E-03
         TOTAL TIME  86400.      1440.0      24.000      1.0000     2.73785E-03
1



          TIME SUMMARY AT END OF TIME STEP         1 IN STRESS PERIOD         1
                    SECONDS     MINUTES      HOURS       DAYS        YEARS
                    -----------------------------------------------------------
   TIME STEP LENGTH  86400.      1440.0      24.000      1.0000     2.73785E-03
 STRESS PERIOD TIME  86400.      1440.0      24.000      1.0000     2.73785E-03
         TOTAL TIME  86400.      1440.0      24.000      1.0000     2.73785E-03
1
 ------------------------------------------------------------------------------------------------------------
 
 SOLVING FOR TRANSPORT 
          TOTAL MASS COMPUTATION FOR COMPONENT NUMBER     1

     INITIAL MASS OF COMPONENTS:
     --------------------------:
     IN MOBILE DOMAIN
     ------------------
     COMPONENT INDEX     MASS
     ---------------     ----
              1        0.245000E+02

          SEQUENTIAL TRANSPORT ITERATION LOOP NUMBER    1
          -----------------------------------------------

 ------------------------------------------------------------------------------------------------------------------------
     1 CALLS TO SPARSE MATRIX SOLVER PACKAGE IN TRANSPORT TIME STEP       1 STRESS PERIOD       1 SPECIES  1

 TOTAL OF       1OUTER ITERATIONS
  MAXIMUM CHANGE FOR EACH ITERATION:
   MAX. CHANGE        NODE  MAX. CHANGE        NODE  MAX. CHANGE        NODE  MAX. CHANGE        NODE  MAX. CHANGE        NODE
 ------------------------------------------------------------------------------------------------------------------------------------
   0.16227E-01,         80
     TRANSPORT SOLUTION COMPLETE FOR COMPONENT SPECIES NUMBER    1
     ------------------------------------------------------------

 TRANSPORT SOLUTION COMPLETE FOR ALL SPECIES, SORTING OUTPUT FOR CONCENTRATIONS AND MASS BALANCE
 ----------------------------------------------------------------------------------------------------
     TRANSPORT OUTPUT FOR COMPONENT SPECIES NUMBER    1
     ------------------------------------------------------------

 CONC WILL BE SAVED ON UNIT   52 AT END OF TIME STEP        1, STRESS PERIOD        1
1
  VOLUMETRIC BUDGET FOR ENTIRE MODEL AT END OF TIME STEP       1 IN STRESS PERIOD       1
  ---------------------------------------------------------------------------------------

     CUMULATIVE VOLUMES      L**3       RATES FOR THIS TIME STEP      L**3/T
     ------------------                 ------------------------

           IN:                                      IN:
           ---                                      ---
        MASS STORAGE =       8.6426E-04          MASS STORAGE =       8.6426E-04
      WELL MASS FLUX =         199.5700        WELL MASS FLUX =         199.5700
       GHB MASS FLUX =           0.0000         GHB MASS FLUX =           0.0000

            TOTAL IN =         199.5709              TOTAL IN =         199.5709

          OUT:                                     OUT:
          ----                                     ----
        MASS STORAGE =       3.1478E-04          MASS STORAGE =       3.1478E-04
      WELL MASS FLUX =           0.0000        WELL MASS FLUX =           0.0000
       GHB MASS FLUX =         199.5706         GHB MASS FLUX =         199.5706

           TOTAL OUT =         199.5709             TOTAL OUT =         199.5709

            IN - OUT =      -1.6326E-07              IN - OUT =       1.6438E-07

 PERCENT DISCREPANCY =          -0.00     PERCENT DISCREPANCY =           0.00



          TOTAL MASS COMPUTATION FOR COMPONENT NUMBER     1

     MASS OF COMPONENTS AT THE END OF STRESS PERIOD         1 AND TIME STEP         1
     ---------------------------------------------------------------------------------------

     IN MOBILE DOMAIN

     ------------------
     COMPONENT INDEX     MASS
     ---------------     ----
              1        0.244995E+02



          TIME SUMMARY AT END OF TIME STEP         1 IN STRESS PERIOD         1
                    SECONDS     MINUTES      HOURS       DAYS        YEARS
                    -----------------------------------------------------------
   TIME STEP LENGTH  86400.      1440.0      24.000      1.0000     2.73785E-03
 STRESS PERIOD TIME  86400.      1440.0      24.000      1.0000     2.73785E-03
         TOTAL TIME  86400.      1440.0      24.000      1.0000     2.73785E-03
1
1
                            STRESS PERIOD NO.     2, LENGTH =  0.5000000    
                            -----------------------------------------------

                              NUMBER OF TIME STEPS =       500

                               MULTIPLIER FOR DELT =     1.000

                            INITIAL TIME STEP SIZE =  0.1000000E-02

 WEL -- WELL PACKAGE, VERSION 7, 5/2/2005 INPUT READ FROM UNIT   20

 WELL NO.      NODE       STRESS FACTOR         C01             
 ---------------------------------------------------------------
        1            1      0.1426           0.000    
        2           81      0.1426           0.000    
        3          161      0.1426           0.000    
        4          241      0.1426           0.000    
        5          321      0.1426           0.000    
        6          401      0.1426           0.000    
        7          481      0.1426           0.000    
        8          561      0.1426           0.000    
        9          641      0.1426           0.000    
       10          721      0.1426           0.000    
       11          801      0.1426           0.000    
       12          881      0.1426           0.000    
       13          961      0.1426           0.000    
       14         1041      0.1426           0.000    
       15         1121      0.1426           0.000    
       16         1201      0.1426           0.000    
       17         1281      0.1426           0.000    
       18         1361      0.1426           0.000    
       19         1441      0.1426           0.000    
       20         1521      0.1426           0.000    
       21         1601      0.1426           0.000    
       22         1681      0.1426           0.000    
       23         1761      0.1426           0.000    
       24         1841      0.1426           0.000    
       25         1921      0.1426           0.000    
       26         2001      0.1426           0.000    
       27         2081      0.1426           0.000    
       28         2161      0.1426           0.000    
       29         2241      0.1426           0.000    
       30         2321      0.1426           0.000    
       31         2401      0.1426           0.000    
       32         2481      0.1426           0.000    
       33         2561      0.1426           0.000    
       34         2641      0.1426           0.000    
       35         2721      0.1426           0.000    
       36         2801      0.1426           0.000    
       37         2881      0.1426           0.000    
       38         2961      0.1426           0.000    
       39         3041      0.1426           0.000    
       40         3121      0.1426           0.000    

     40 WELLS

 GHB -- GENERAL-HEAD BOUNDARY PACKAGE, VERSION 7, 5/2/2005
         INPUT READ FROM UNIT   23

 REUSING NON-PARAMETER GHB CELLS FROM LAST STRESS PERIOD

       40 GHB CELLS
 -------------------------------------------------------------------------------------
 
 SOLVING FOR HEAD 

 Outer-Iteration  Inner-Iteration  Backtracking  Number of        Incoming       Outgoing      Cutoff     Maximum Head Change      Maximum Head Change
     Number           Count           Flag       Backtracks       Residual       Residual      Residual            Value               Location
        1                             0             0          0.623189E-04     0.623189E-04   -1.00000    
        1                4                                                                                      -0.187781E-05               2638           GWF-node number


     1 CALLS TO SPARSE MATRIX SOLVER PACKAGE  IN FLOW TIME STEP       1 STRESS PERIOD       2

 TOTAL OF       1OUTER ITERATIONS
  MAXIMUM CHANGE FOR EACH ITERATION:
   MAX. CHANGE        NODE  MAX. CHANGE        NODE  MAX. CHANGE        NODE  MAX. CHANGE        NODE  MAX. CHANGE        NODE
 ------------------------------------------------------------------------------------------------------------------------------------
  -0.18778E-05,       2638

 NO OUTPUT CONTROL FOR STRESS PERIOD        2   TIME STEP        1



          TIME SUMMARY AT END OF TIME STEP         1 IN STRESS PERIOD         2
                    SECONDS     MINUTES      HOURS       DAYS        YEARS
                    -----------------------------------------------------------
   TIME STEP LENGTH  86.400      1.4400     2.40000E-02 1.00000E-03 2.73785E-06
 STRESS PERIOD TIME  86.400      1.4400     2.40000E-02 1.00000E-03 2.73785E-06
         TOTAL TIME  86486.      1441.4      24.024      1.0010     2.74059E-03
1
 ------------------------------------------------------------------------------------------------------------
 
 SOLVING FOR TRANSPORT 

          SEQUENTIAL TRANSPORT ITERATION LOOP NUMBER    1
          -----------------------------------------------

 ------------------------------------------------------------------------------------------------------------------------
     1 CALLS TO SPARSE MATRIX SOLVER PACKAGE IN TRANSPORT TIME STEP       1 STRESS PERIOD       2 SPECIES  1

 TOTAL OF       1OUTER ITERATIONS
  MAXIMUM CHANGE FOR EACH ITERATION:
   MAX. CHANGE        NODE  MAX. CHANGE        NODE  MAX. CHANGE        NODE  MAX. CHANGE        NODE  MAX. CHANGE        NODE
 ------------------------------------------------------------------------------------------------------------------------------------
   -10.922    ,       3041
     TRANSPORT SOLUTION COMPLETE FOR COMPONENT SPECIES NUMBER    1
     ------------------------------------------------------------

 TRANSPORT SOLUTION COMPLETE FOR ALL SPECIES, SORTING OUTPUT FOR CONCENTRATIONS AND MASS BALANCE
 ----------------------------------------------------------------------------------------------------
     TRANSPORT OUTPUT FOR COMPONENT SPECIES NUMBER    1
     ------------------------------------------------------------
 -------------------------------------------------------------------------------------
 
 SOLVING FOR HEAD 

 Outer-Iteration  Inner-Iteration  Backtracking  Number of        Incoming       Outgoing      Cutoff     Maximum Head Change      Maximum Head Change
     Number           Count           Flag       Backtracks       Residual       Residual      Residual            Value               Location
        1                             0             0           189.889          189.889       -1.00000    
        1               24                                                                                       0.720108E-02               3121           GWF-node number
        2                             0             0          0.819876E-02     0.819876E-02   -1.00000    
        2               10                                                                                       0.231343E-04               3121           GWF-node number
        3                             0             0          0.347303E-05     0.347303E-05   -1.00000    
        3                3                                                                                       0.451048E-05                  1           GWF-node number
     3 CALLS TO SPARSE MATRIX SOLVER PACKAGE  IN FLOW TIME STEP       2 STRESS PERIOD       2

 TOTAL OF       3OUTER ITERATIONS
  MAXIMUM CHANGE FOR EACH ITERATION:
   MAX. CHANGE        NODE  MAX. CHANGE        NODE  MAX. CHANGE        NODE  MAX. CHANGE        NODE  MAX. CHANGE        NODE
 ------------------------------------------------------------------------------------------------------------------------------------
   0.72011E-02,       3121  0.23134E-04,       3121  0.45105E-05,          1

 NO OUTPUT CONTROL FOR STRESS PERIOD        2   TIME STEP        2



          TIME SUMMARY AT END OF TIME STEP         2 IN STRESS PERIOD         2
                    SECONDS     MINUTES      HOURS       DAYS        YEARS
                    -----------------------------------------------------------
   TIME STEP LENGTH  86.400      1.4400     2.40000E-02 1.00000E-03 2.73785E-06
 STRESS PERIOD TIME  172.80      2.8800     4.80000E-02 2.00000E-03 5.47570E-06
         TOTAL TIME  86573.      1442.9      24.048      1.0020     2.74333E-03
1
 ------------------------------------------------------------------------------------------------------------
 
 SOLVING FOR TRANSPORT 

          SEQUENTIAL TRANSPORT ITERATION LOOP NUMBER    1
          -----------------------------------------------

 ------------------------------------------------------------------------------------------------------------------------
     1 CALLS TO SPARSE MATRIX SOLVER PACKAGE IN TRANSPORT TIME STEP       2 STRESS PERIOD       2 SPECIES  1

 TOTAL OF       1OUTER ITERATIONS
  MAXIMUM CHANGE FOR EACH ITERATION:
   MAX. CHANGE        NODE  MAX. CHANGE        NODE  MAX. CHANGE        NODE  MAX. CHANGE        NODE  MAX. CHANGE        NODE
 ------------------------------------------------------------------------------------------------------------------------------------
   -6.5163    ,          1
     TRANSPORT SOLUTION COMPLETE FOR COMPONENT SPECIES NUMBER    1
     ------------------------------------------------------------

 TRANSPORT SOLUTION COMPLETE FOR ALL SPECIES, SORTING OUTPUT FOR CONCENTRATIONS AND MASS BALANCE
 ----------------------------------------------------------------------------------------------------
     TRANSPORT OUTPUT FOR COMPONENT SPECIES NUMBER    1
     ------------------------------------------------------------
 -------------------------------------------------------------------------------------
 
 SOLVING FOR HEAD 

 Outer-Iteration  Inner-Iteration  Backtracking  Number of        Incoming       Outgoing      Cutoff     Maximum Head Change      Maximum Head Change
     Number           Count           Flag       Backtracks       Residual       Residual      Residual            Value               Location
        1                             0             0           8.36762          8.36762       -1.00000    
        1               22                                                                                       0.363821E-02               3041           GWF-node number
        2                             0             0          0.382533E-02     0.382533E-02   -1.00000    
        2               12                                                                                       0.244140E-04               2881           GWF-node number
        3                             0             0          0.531966E-06     0.531966E-06   -1.00000    
        3                2                                                                                       0.157904E-05                 81           GWF-node number
     3 CALLS TO SPARSE MATRIX SOLVER PACKAGE  IN FLOW TIME STEP       3 STRESS PERIOD       2

 TOTAL OF       3OUTER ITERATIONS
  MAXIMUM CHANGE FOR EACH ITERATION:
   MAX. CHANGE        NODE  MAX. CHANGE        NODE  MAX. CHANGE        NODE  MAX. CHANGE        NODE  MAX. CHANGE        NODE
 ------------------------------------------------------------------------------------------------------------------------------------
   0.36382E-02,       3041  0.24414E-04,       2881  0.15790E-05,         81

 NO OUTPUT CONTROL FOR STRESS PERIOD        2   TIME STEP        3



          TIME SUMMARY AT END OF TIME STEP         3 IN STRESS PERIOD         2
                    SECONDS     MINUTES      HOURS       DAYS        YEARS
                    -----------------------------------------------------------
   TIME STEP LENGTH  86.400      1.4400     2.40000E-02 1.00000E-03 2.73785E-06
 STRESS PERIOD TIME  259.20      4.3200     7.20000E-02 3.00000E-03 8.21355E-06
         TOTAL TIME  86659.      1444.3      24.072      1.0030     2.74606E-03
1
 ------------------------------------------------------------------------------------------------------------
 
 SOLVING FOR TRANSPORT 

          SEQUENTIAL TRANSPORT ITERATION LOOP NUMBER    1
          -----------------------------------------------

 ------------------------------------------------------------------------------------------------------------------------
     1 CALLS TO SPARSE MATRIX SOLVER PACKAGE IN TRANSPORT TIME STEP       3 STRESS PERIOD       2 SPECIES  1

 TOTAL OF       1OUTER ITERATIONS
  MAXIMUM CHANGE FOR EACH ITERATION:
   MAX. CHANGE        NODE  MAX. CHANGE        NODE  MAX. CHANGE        NODE  MAX. CHANGE        NODE  MAX. CHANGE        NODE
 ------------------------------------------------------------------------------------------------------------------------------------
   -5.0653    ,          2
     TRANSPORT SOLUTION COMPLETE FOR COMPONENT SPECIES NUMBER    1
     ------------------------------------------------------------

 TRANSPORT SOLUTION COMPLETE FOR ALL SPECIES, SORTING OUTPUT FOR CONCENTRATIONS AND MASS BALANCE
 ----------------------------------------------------------------------------------------------------
     TRANSPORT OUTPUT FOR COMPONENT SPECIES NUMBER    1
     ------------------------------------------------------------
 -------------------------------------------------------------------------------------
 
 SOLVING FOR HEAD 

 Outer-Iteration  Inner-Iteration  Backtracking  Number of        Incoming       Outgoing      Cutoff     Maximum Head Change      Maximum Head Change
     Number           Count           Flag       Backtracks       Residual       Residual      Residual            Value               Location
        1                             0             0           5.66263          5.66263       -1.00000    
        1               20                                                                                       0.228855E-02               2722           GWF-node number
        2                             0             0          0.146252E-02     0.146252E-02   -1.00000    
        2               12                                                                                       0.211357E-04               2721           GWF-node number
        3                             0             0          0.369106E-06     0.369106E-06   -1.00000    
        3                1                                                                                       0.925315E-06               3121           GWF-node number
     3 CALLS TO SPARSE MATRIX SOLVER PACKAGE  IN FLOW TIME STEP       4 STRESS PERIOD       2

 TOTAL OF       3OUTER ITERATIONS
  MAXIMUM CHANGE FOR EACH ITERATION:
   MAX. CHANGE        NODE  MAX. CHANGE        NODE  MAX. CHANGE        NODE  MAX. CHANGE        NODE  MAX. CHANGE        NODE
 ------------------------------------------------------------------------------------------------------------------------------------
   0.22886E-02,       2722  0.21136E-04,       2721  0.92532E-06,       3121

 NO OUTPUT CONTROL FOR STRESS PERIOD        2   TIME STEP        4



          TIME SUMMARY AT END OF TIME STEP         4 IN STRESS PERIOD         2
                    SECONDS     MINUTES      HOURS       DAYS        YEARS
                    -----------------------------------------------------------
   TIME STEP LENGTH  86.400      1.4400     2.40000E-02 1.00000E-03 2.73785E-06
 STRESS PERIOD TIME  345.60      5.7600     9.60000E-02 4.00000E-03 1.09514E-05
         TOTAL TIME  86746.      1445.8      24.096      1.0040     2.74880E-03
1
 ------------------------------------------------------------------------------------------------------------
 
 SOLVING FOR TRANSPORT 

          SEQUENTIAL TRANSPORT ITERATION LOOP NUMBER    1
          -----------------------------------------------

 ------------------------------------------------------------------------------------------------------------------------
     1 CALLS TO SPARSE MATRIX SOLVER PACKAGE IN TRANSPORT TIME STEP       4 STRESS PERIOD       2 SPECIES  1

 TOTAL OF       1OUTER ITERATIONS
  MAXIMUM CHANGE FOR EACH ITERATION:
   MAX. CHANGE        NODE  MAX. CHANGE        NODE  MAX. CHANGE        NODE  MAX. CHANGE        NODE  MAX. CHANGE        NODE
 ------------------------------------------------------------------------------------------------------------------------------------
   -4.3544    ,          4
     TRANSPORT SOLUTION COMPLETE FOR COMPONENT SPECIES NUMBER    1
     ------------------------------------------------------------

 TRANSPORT SOLUTION COMPLETE FOR ALL SPECIES, SORTING OUTPUT FOR CONCENTRATIONS AND MASS BALANCE
 ----------------------------------------------------------------------------------------------------
     TRANSPORT OUTPUT FOR COMPONENT SPECIES NUMBER    1
     ------------------------------------------------------------
 -------------------------------------------------------------------------------------
 
 SOLVING FOR HEAD 

 Outer-Iteration  Inner-Iteration  Backtracking  Number of        Incoming       Outgoing      Cutoff     Maximum Head Change      Maximum Head Change
     Number           Count           Flag       Backtracks       Residual       Residual      Residual            Value               Location
        1                             0             0           4.92105          4.92105       -1.00000    
        1               21                                                                                       0.166787E-02               2563           GWF-node number
        2                             0             0          0.581726E-03     0.581726E-03   -1.00000    
        2                8                                                                                       0.156158E-04               2561           GWF-node number
        3                             0             0          0.378196E-05     0.378196E-05   -1.00000    
        3                3                                                                                       0.524760E-05                  1           GWF-node number
     3 CALLS TO SPARSE MATRIX SOLVER PACKAGE  IN FLOW TIME STEP       5 STRESS PERIOD       2

 TOTAL OF       3OUTER ITERATIONS
  MAXIMUM CHANGE FOR EACH ITERATION:
   MAX. CHANGE        NODE  MAX. CHANGE        NODE  MAX. CHANGE        NODE  MAX. CHANGE        NODE  MAX. CHANGE        NODE
 ------------------------------------------------------------------------------------------------------------------------------------
   0.16679E-02,       2563  0.15616E-04,       2561  0.52476E-05,          1

 NO OUTPUT CONTROL FOR STRESS PERIOD        2   TIME STEP        5



          TIME SUMMARY AT END OF TIME STEP         5 IN STRESS PERIOD         2
                    SECONDS     MINUTES      HOURS       DAYS        YEARS
                    -----------------------------------------------------------
   TIME STEP LENGTH  86.400      1.4400     2.40000E-02 1.00000E-03 2.73785E-06
 STRESS PERIOD TIME  432.00      7.2000     0.12000     5.00000E-03 1.36893E-05
         TOTAL TIME  86832.      1447.2      24.120      1.0050     2.75154E-03
1
 ------------------------------------------------------------------------------------------------------------
 
 SOLVING FOR TRANSPORT 

          SEQUENTIAL TRANSPORT ITERATION LOOP NUMBER    1
          -----------------------------------------------

 ------------------------------------------------------------------------------------------------------------------------
     1 CALLS TO SPARSE MATRIX SOLVER PACKAGE IN TRANSPORT TIME STEP       5 STRESS PERIOD       2 SPECIES  1

 TOTAL OF       1OUTER ITERATIONS
  MAXIMUM CHANGE FOR EACH ITERATION:
   MAX. CHANGE        NODE  MAX. CHANGE        NODE  MAX. CHANGE        NODE  MAX. CHANGE        NODE  MAX. CHANGE        NODE
 ------------------------------------------------------------------------------------------------------------------------------------
   -3.8996    ,          5
     TRANSPORT SOLUTION COMPLETE FOR COMPONENT SPECIES NUMBER    1
     ------------------------------------------------------------

 TRANSPORT SOLUTION COMPLETE FOR ALL SPECIES, SORTING OUTPUT FOR CONCENTRATIONS AND MASS BALANCE
 ----------------------------------------------------------------------------------------------------
     TRANSPORT OUTPUT FOR COMPONENT SPECIES NUMBER    1
     ------------------------------------------------------------
 -------------------------------------------------------------------------------------
 
 SOLVING FOR HEAD 

 Outer-Iteration  Inner-Iteration  Backtracking  Number of        Incoming       Outgoing      Cutoff     Maximum Head Change      Maximum Head Change
     Number           Count           Flag       Backtracks       Residual       Residual      Residual            Value               Location
        1                             0             0           3.49332          3.49332       -1.00000    
        1               19                                                                                       0.134104E-02               2483           GWF-node number
        2                             0             0          0.256328E-03     0.256328E-03   -1.00000    
        2               11                                                                                       0.157862E-04               2401           GWF-node number
        3                             0             0          0.313128E-06     0.313128E-06   -1.00000    
        3                1                                                                                       0.922855E-06               3121           GWF-node number
     3 CALLS TO SPARSE MATRIX SOLVER PACKAGE  IN FLOW TIME STEP       6 STRESS PERIOD       2

 TOTAL OF       3OUTER ITERATIONS
  MAXIMUM CHANGE FOR EACH ITERATION:
   MAX. CHANGE        NODE  MAX. CHANGE        NODE  MAX. CHANGE        NODE  MAX. CHANGE        NODE  MAX. CHANGE        NODE
 ------------------------------------------------------------------------------------------------------------------------------------
   0.13410E-02,       2483  0.15786E-04,       2401  0.92285E-06,       3121

 NO OUTPUT CONTROL FOR STRESS PERIOD        2   TIME STEP        6



          TIME SUMMARY AT END OF TIME STEP         6 IN STRESS PERIOD         2
                    SECONDS     MINUTES      HOURS       DAYS        YEARS
                    -----------------------------------------------------------
   TIME STEP LENGTH  86.400      1.4400     2.40000E-02 1.00000E-03 2.73785E-06
 STRESS PERIOD TIME  518.40      8.6400     0.14400     6.00000E-03 1.64271E-05
         TOTAL TIME  86918.      1448.6      24.144      1.0060     2.75428E-03
1
 ------------------------------------------------------------------------------------------------------------
 
 SOLVING FOR TRANSPORT 

          SEQUENTIAL TRANSPORT ITERATION LOOP NUMBER    1
          -----------------------------------------------

 ------------------------------------------------------------------------------------------------------------------------
     1 CALLS TO SPARSE MATRIX SOLVER PACKAGE IN TRANSPORT TIME STEP       6 STRESS PERIOD       2 SPECIES  1

 TOTAL OF       1OUTER ITERATIONS
  MAXIMUM CHANGE FOR EACH ITERATION:
   MAX. CHANGE        NODE  MAX. CHANGE        NODE  MAX. CHANGE        NODE  MAX. CHANGE        NODE  MAX. CHANGE        NODE
 ------------------------------------------------------------------------------------------------------------------------------------
   -3.5585    ,          6
     TRANSPORT SOLUTION COMPLETE FOR COMPONENT SPECIES NUMBER    1
     ------------------------------------------------------------

 TRANSPORT SOLUTION COMPLETE FOR ALL SPECIES, SORTING OUTPUT FOR CONCENTRATIONS AND MASS BALANCE
 ----------------------------------------------------------------------------------------------------
     TRANSPORT OUTPUT FOR COMPONENT SPECIES NUMBER    1
     ------------------------------------------------------------
 -------------------------------------------------------------------------------------
 
 SOLVING FOR HEAD 

 Outer-Iteration  Inner-Iteration  Backtracking  Number of        Incoming       Outgoing      Cutoff     Maximum Head Change      Maximum Head Change
     Number           Count           Flag       Backtracks       Residual       Residual      Residual            Value               Location
        1                             0             0           2.31763          2.31763       -1.00000    
        1               19                                                                                       0.111298E-02               2324           GWF-node number
        2                             0             0          0.119565E-03     0.119565E-03   -1.00000    
        2               10                                                                                       0.132863E-04               2241           GWF-node number
        3                             0             0          0.392491E-06     0.392491E-06   -1.00000    
        3                1                                                                                       0.922799E-06               3121           GWF-node number
     3 CALLS TO SPARSE MATRIX SOLVER PACKAGE  IN FLOW TIME STEP       7 STRESS PERIOD       2

 TOTAL OF       3OUTER ITERATIONS
  MAXIMUM CHANGE FOR EACH ITERATION:
   MAX. CHANGE        NODE  MAX. CHANGE        NODE  MAX. CHANGE        NODE  MAX. CHANGE        NODE  MAX. CHANGE        NODE
 ------------------------------------------------------------------------------------------------------------------------------------
   0.11130E-02,       2324  0.13286E-04,       2241  0.92280E-06,       3121

 NO OUTPUT CONTROL FOR STRESS PERIOD        2   TIME STEP        7



          TIME SUMMARY AT END OF TIME STEP         7 IN STRESS PERIOD         2
                    SECONDS     MINUTES      HOURS       DAYS        YEARS
                    -----------------------------------------------------------
   TIME STEP LENGTH  86.400      1.4400     2.40000E-02 1.00000E-03 2.73785E-06
 STRESS PERIOD TIME  604.80      10.080     0.16800     7.00000E-03 1.91650E-05
         TOTAL TIME  87005.      1450.1      24.168      1.0070     2.75702E-03
1
 ------------------------------------------------------------------------------------------------------------
 
 SOLVING FOR TRANSPORT 

          SEQUENTIAL TRANSPORT ITERATION LOOP NUMBER    1
          -----------------------------------------------

 ------------------------------------------------------------------------------------------------------------------------
     1 CALLS TO SPARSE MATRIX SOLVER PACKAGE IN TRANSPORT TIME STEP       7 STRESS PERIOD       2 SPECIES  1

 TOTAL OF       1OUTER ITERATIONS
  MAXIMUM CHANGE FOR EACH ITERATION:
   MAX. CHANGE        NODE  MAX. CHANGE        NODE  MAX. CHANGE        NODE  MAX. CHANGE        NODE  MAX. CHANGE        NODE
 ------------------------------------------------------------------------------------------------------------------------------------
   -3.3036    ,          8
     TRANSPORT SOLUTION COMPLETE FOR COMPONENT SPECIES NUMBER    1
     ------------------------------------------------------------

 TRANSPORT SOLUTION COMPLETE FOR ALL SPECIES, SORTING OUTPUT FOR CONCENTRATIONS AND MASS BALANCE
 ----------------------------------------------------------------------------------------------------
     TRANSPORT OUTPUT FOR COMPONENT SPECIES NUMBER    1
     ------------------------------------------------------------
 -------------------------------------------------------------------------------------
 
 SOLVING FOR HEAD 

 Outer-Iteration  Inner-Iteration  Backtracking  Number of        Incoming       Outgoing      Cutoff     Maximum Head Change      Maximum Head Change
     Number           Count           Flag       Backtracks       Residual       Residual      Residual            Value               Location
        1                             0             0           1.54867          1.54867       -1.00000    
        1               17                                                                                       0.942421E-03               2165           GWF-node number
        2                             0             0          0.637651E-04     0.637651E-04   -1.00000    
        2               10                                                                                       0.124337E-04               2081           GWF-node number
        3                             0             0          0.300844E-06     0.300844E-06   -1.00000    
        3                1                                                                                       0.897002E-06               3121           GWF-node number
     3 CALLS TO SPARSE MATRIX SOLVER PACKAGE  IN FLOW TIME STEP       8 STRESS PERIOD       2

 TOTAL OF       3OUTER ITERATIONS
  MAXIMUM CHANGE FOR EACH ITERATION:
   MAX. CHANGE        NODE  MAX. CHANGE        NODE  MAX. CHANGE        NODE  MAX. CHANGE        NODE  MAX. CHANGE        NODE
 ------------------------------------------------------------------------------------------------------------------------------------
   0.94242E-03,       2165  0.12434E-04,       2081  0.89700E-06,       3121

 NO OUTPUT CONTROL FOR STRESS PERIOD        2   TIME STEP        8



          TIME SUMMARY AT END OF TIME STEP         8 IN STRESS PERIOD         2
                    SECONDS     MINUTES      HOURS       DAYS        YEARS
                    -----------------------------------------------------------
   TIME STEP LENGTH  86.400      1.4400     2.40000E-02 1.00000E-03 2.73785E-06
 STRESS PERIOD TIME  691.20      11.520     0.19200     8.00000E-03 2.19028E-05
         TOTAL TIME  87091.      1451.5      24.192      1.0080     2.75975E-03
1
 ------------------------------------------------------------------------------------------------------------
 
 SOLVING FOR TRANSPORT 

          SEQUENTIAL TRANSPORT ITERATION LOOP NUMBER    1
          -----------------------------------------------

 ------------------------------------------------------------------------------------------------------------------------
     1 CALLS TO SPARSE MATRIX SOLVER PACKAGE IN TRANSPORT TIME STEP       8 STRESS PERIOD       2 SPECIES  1

 TOTAL OF       1OUTER ITERATIONS
  MAXIMUM CHANGE FOR EACH ITERATION:
   MAX. CHANGE        NODE  MAX. CHANGE        NODE  MAX. CHANGE        NODE  MAX. CHANGE        NODE  MAX. CHANGE        NODE
 ------------------------------------------------------------------------------------------------------------------------------------
   -3.1071    ,          9
     TRANSPORT SOLUTION COMPLETE FOR COMPONENT SPECIES NUMBER    1
     ------------------------------------------------------------

 TRANSPORT SOLUTION COMPLETE FOR ALL SPECIES, SORTING OUTPUT FOR CONCENTRATIONS AND MASS BALANCE
 ----------------------------------------------------------------------------------------------------
     TRANSPORT OUTPUT FOR COMPONENT SPECIES NUMBER    1
     ------------------------------------------------------------
 -------------------------------------------------------------------------------------
 
 SOLVING FOR HEAD 

 Outer-Iteration  Inner-Iteration  Backtracking  Number of        Incoming       Outgoing      Cutoff     Maximum Head Change      Maximum Head Change
     Number           Count           Flag       Backtracks       Residual       Residual      Residual            Value               Location
        1                             0             0           1.04513          1.04513       -1.00000    
        1               16                                                                                       0.822049E-03               2165           GWF-node number
        2                             0             0          0.377557E-04     0.377557E-04   -1.00000    
        2               10                                                                                       0.134212E-04               1761           GWF-node number
        3                             0             0          0.876350E-07     0.876350E-07   -1.00000    
        3                1                                                                                      -0.724447E-06               2340           GWF-node number
     3 CALLS TO SPARSE MATRIX SOLVER PACKAGE  IN FLOW TIME STEP       9 STRESS PERIOD       2

 TOTAL OF       3OUTER ITERATIONS
  MAXIMUM CHANGE FOR EACH ITERATION:
   MAX. CHANGE        NODE  MAX. CHANGE        NODE  MAX. CHANGE        NODE  MAX. CHANGE        NODE  MAX. CHANGE        NODE
 ------------------------------------------------------------------------------------------------------------------------------------
   0.82205E-03,       2165  0.13421E-04,       1761 -0.72445E-06,       2340

 NO OUTPUT CONTROL FOR STRESS PERIOD        2   TIME STEP        9



          TIME SUMMARY AT END OF TIME STEP         9 IN STRESS PERIOD         2
                    SECONDS     MINUTES      HOURS       DAYS        YEARS
                    -----------------------------------------------------------
   TIME STEP LENGTH  86.400      1.4400     2.40000E-02 1.00000E-03 2.73785E-06
 STRESS PERIOD TIME  777.60      12.960     0.21600     9.00000E-03 2.46407E-05
         TOTAL TIME  87178.      1453.0      24.216      1.0090     2.76249E-03
1
 ------------------------------------------------------------------------------------------------------------
 
 SOLVING FOR TRANSPORT 

          SEQUENTIAL TRANSPORT ITERATION LOOP NUMBER    1
          -----------------------------------------------

 ------------------------------------------------------------------------------------------------------------------------
     1 CALLS TO SPARSE MATRIX SOLVER PACKAGE IN TRANSPORT TIME STEP       9 STRESS PERIOD       2 SPECIES  1

 TOTAL OF       1OUTER ITERATIONS
  MAXIMUM CHANGE FOR EACH ITERATION:
   MAX. CHANGE        NODE  MAX. CHANGE        NODE  MAX. CHANGE        NODE  MAX. CHANGE        NODE  MAX. CHANGE        NODE
 ------------------------------------------------------------------------------------------------------------------------------------
   -2.9339    ,         11
     TRANSPORT SOLUTION COMPLETE FOR COMPONENT SPECIES NUMBER    1
     ------------------------------------------------------------

 TRANSPORT SOLUTION COMPLETE FOR ALL SPECIES, SORTING OUTPUT FOR CONCENTRATIONS AND MASS BALANCE
 ----------------------------------------------------------------------------------------------------
     TRANSPORT OUTPUT FOR COMPONENT SPECIES NUMBER    1
     ------------------------------------------------------------
 -------------------------------------------------------------------------------------
 
 SOLVING FOR HEAD 

 Outer-Iteration  Inner-Iteration  Backtracking  Number of        Incoming       Outgoing      Cutoff     Maximum Head Change      Maximum Head Change
     Number           Count           Flag       Backtracks       Residual       Residual      Residual            Value               Location
        1                             0             0          0.715316         0.715316       -1.00000    
        1               19                                                                                       0.734002E-03               2006           GWF-node number
        2                             0             0          0.208235E-04     0.208235E-04   -1.00000    
        2                8                                                                                       0.910792E-05               1681           GWF-node number
     2 CALLS TO SPARSE MATRIX SOLVER PACKAGE  IN FLOW TIME STEP      10 STRESS PERIOD       2

 TOTAL OF       2OUTER ITERATIONS
  MAXIMUM CHANGE FOR EACH ITERATION:
   MAX. CHANGE        NODE  MAX. CHANGE        NODE  MAX. CHANGE        NODE  MAX. CHANGE        NODE  MAX. CHANGE        NODE
 ------------------------------------------------------------------------------------------------------------------------------------
   0.73400E-03,       2006  0.91079E-05,       1681

 NO OUTPUT CONTROL FOR STRESS PERIOD        2   TIME STEP       10



          TIME SUMMARY AT END OF TIME STEP        10 IN STRESS PERIOD         2
                    SECONDS     MINUTES      HOURS       DAYS        YEARS
                    -----------------------------------------------------------
   TIME STEP LENGTH  86.400      1.4400     2.40000E-02 1.00000E-03 2.73785E-06
 STRESS PERIOD TIME  864.00      14.400     0.24000     1.00000E-02 2.73785E-05
         TOTAL TIME  87264.      1454.4      24.240      1.0100     2.76523E-03
1
 ------------------------------------------------------------------------------------------------------------
 
 SOLVING FOR TRANSPORT 

          SEQUENTIAL TRANSPORT ITERATION LOOP NUMBER    1
          -----------------------------------------------

 ------------------------------------------------------------------------------------------------------------------------
     1 CALLS TO SPARSE MATRIX SOLVER PACKAGE IN TRANSPORT TIME STEP      10 STRESS PERIOD       2 SPECIES  1

 TOTAL OF       1OUTER ITERATIONS
  MAXIMUM CHANGE FOR EACH ITERATION:
   MAX. CHANGE        NODE  MAX. CHANGE        NODE  MAX. CHANGE        NODE  MAX. CHANGE        NODE  MAX. CHANGE        NODE
 ------------------------------------------------------------------------------------------------------------------------------------
   -2.7963    ,         12
     TRANSPORT SOLUTION COMPLETE FOR COMPONENT SPECIES NUMBER    1
     ------------------------------------------------------------

 TRANSPORT SOLUTION COMPLETE FOR ALL SPECIES, SORTING OUTPUT FOR CONCENTRATIONS AND MASS BALANCE
 ----------------------------------------------------------------------------------------------------
     TRANSPORT OUTPUT FOR COMPONENT SPECIES NUMBER    1
     ------------------------------------------------------------
 -------------------------------------------------------------------------------------
 
 SOLVING FOR HEAD 

 Outer-Iteration  Inner-Iteration  Backtracking  Number of        Incoming       Outgoing      Cutoff     Maximum Head Change      Maximum Head Change
     Number           Count           Flag       Backtracks       Residual       Residual      Residual            Value               Location
        1                             0             0          0.498919         0.498919       -1.00000    
        1               16                                                                                       0.662616E-03               1847           GWF-node number
        2                             0             0          0.134983E-04     0.134983E-04   -1.00000    
        2                7                                                                                       0.109476E-04               1601           GWF-node number
        3                             0             0          0.102323E-05     0.102323E-05   -1.00000    
        3                3                                                                                      -0.120838E-05               2483           GWF-node number
     3 CALLS TO SPARSE MATRIX SOLVER PACKAGE  IN FLOW TIME STEP      11 STRESS PERIOD       2

 TOTAL OF       3OUTER ITERATIONS
  MAXIMUM CHANGE FOR EACH ITERATION:
   MAX. CHANGE        NODE  MAX. CHANGE        NODE  MAX. CHANGE        NODE  MAX. CHANGE        NODE  MAX. CHANGE        NODE
 ------------------------------------------------------------------------------------------------------------------------------------
   0.66262E-03,       1847  0.10948E-04,       1601 -0.12084E-05,       2483

 NO OUTPUT CONTROL FOR STRESS PERIOD        2   TIME STEP       11



          TIME SUMMARY AT END OF TIME STEP        11 IN STRESS PERIOD         2
                    SECONDS     MINUTES      HOURS       DAYS        YEARS
                    -----------------------------------------------------------
   TIME STEP LENGTH  86.400      1.4400     2.40000E-02 1.00000E-03 2.73785E-06
 STRESS PERIOD TIME  950.40      15.840     0.26400     1.10000E-02 3.01164E-05
         TOTAL TIME  87350.      1455.8      24.264      1.0110     2.76797E-03
1
 ------------------------------------------------------------------------------------------------------------
 
 SOLVING FOR TRANSPORT 

          SEQUENTIAL TRANSPORT ITERATION LOOP NUMBER    1
          -----------------------------------------------

 ------------------------------------------------------------------------------------------------------------------------
     1 CALLS TO SPARSE MATRIX SOLVER PACKAGE IN TRANSPORT TIME STEP      11 STRESS PERIOD       2 SPECIES  1

 TOTAL OF       1OUTER ITERATIONS
  MAXIMUM CHANGE FOR EACH ITERATION:
   MAX. CHANGE        NODE  MAX. CHANGE        NODE  MAX. CHANGE        NODE  MAX. CHANGE        NODE  MAX. CHANGE        NODE
 ------------------------------------------------------------------------------------------------------------------------------------
   -2.6686    ,         13
     TRANSPORT SOLUTION COMPLETE FOR COMPONENT SPECIES NUMBER    1
     ------------------------------------------------------------

 TRANSPORT SOLUTION COMPLETE FOR ALL SPECIES, SORTING OUTPUT FOR CONCENTRATIONS AND MASS BALANCE
 ----------------------------------------------------------------------------------------------------
     TRANSPORT OUTPUT FOR COMPONENT SPECIES NUMBER    1
     ------------------------------------------------------------
 -------------------------------------------------------------------------------------
 
 SOLVING FOR HEAD 

 Outer-Iteration  Inner-Iteration  Backtracking  Number of        Incoming       Outgoing      Cutoff     Maximum Head Change      Maximum Head Change
     Number           Count           Flag       Backtracks       Residual       Residual      Residual            Value               Location
        1                             0             0          0.353190         0.353190       -1.00000    
        1               16                                                                                       0.604062E-03               1768           GWF-node number
        2                             0             0          0.915140E-05     0.915140E-05   -1.00000    
        2                6                                                                                       0.869445E-05               1441           GWF-node number
     2 CALLS TO SPARSE MATRIX SOLVER PACKAGE  IN FLOW TIME STEP      12 STRESS PERIOD       2

 TOTAL OF       2OUTER ITERATIONS
  MAXIMUM CHANGE FOR EACH ITERATION:
   MAX. CHANGE        NODE  MAX. CHANGE        NODE  MAX. CHANGE        NODE  MAX. CHANGE        NODE  MAX. CHANGE        NODE
 ------------------------------------------------------------------------------------------------------------------------------------
   0.60406E-03,       1768  0.86944E-05,       1441

 NO OUTPUT CONTROL FOR STRESS PERIOD        2   TIME STEP       12



          TIME SUMMARY AT END OF TIME STEP        12 IN STRESS PERIOD         2
                    SECONDS     MINUTES      HOURS       DAYS        YEARS
                    -----------------------------------------------------------
   TIME STEP LENGTH  86.400      1.4400     2.40000E-02 1.00000E-03 2.73785E-06
 STRESS PERIOD TIME  1036.8      17.280     0.28800     1.20000E-02 3.28542E-05
         TOTAL TIME  87437.      1457.3      24.288      1.0120     2.77070E-03
1
 ------------------------------------------------------------------------------------------------------------
 
 SOLVING FOR TRANSPORT 

          SEQUENTIAL TRANSPORT ITERATION LOOP NUMBER    1
          -----------------------------------------------

 ------------------------------------------------------------------------------------------------------------------------
     1 CALLS TO SPARSE MATRIX SOLVER PACKAGE IN TRANSPORT TIME STEP      12 STRESS PERIOD       2 SPECIES  1

 TOTAL OF       1OUTER ITERATIONS
  MAXIMUM CHANGE FOR EACH ITERATION:
   MAX. CHANGE        NODE  MAX. CHANGE        NODE  MAX. CHANGE        NODE  MAX. CHANGE        NODE  MAX. CHANGE        NODE
 ------------------------------------------------------------------------------------------------------------------------------------
   -2.5629    ,         15
     TRANSPORT SOLUTION COMPLETE FOR COMPONENT SPECIES NUMBER    1
     ------------------------------------------------------------

 TRANSPORT SOLUTION COMPLETE FOR ALL SPECIES, SORTING OUTPUT FOR CONCENTRATIONS AND MASS BALANCE
 ----------------------------------------------------------------------------------------------------
     TRANSPORT OUTPUT FOR COMPONENT SPECIES NUMBER    1
     ------------------------------------------------------------
 -------------------------------------------------------------------------------------
 
 SOLVING FOR HEAD 

 Outer-Iteration  Inner-Iteration  Backtracking  Number of        Incoming       Outgoing      Cutoff     Maximum Head Change      Maximum Head Change
     Number           Count           Flag       Backtracks       Residual       Residual      Residual            Value               Location
        1                             0             0          0.257504         0.257504       -1.00000    
        1               20                                                                                       0.563123E-03               1688           GWF-node number
        2                             0             0          0.655530E-05     0.655530E-05   -1.00000    
        2                6                                                                                       0.790196E-05               1281           GWF-node number
     2 CALLS TO SPARSE MATRIX SOLVER PACKAGE  IN FLOW TIME STEP      13 STRESS PERIOD       2

 TOTAL OF       2OUTER ITERATIONS
  MAXIMUM CHANGE FOR EACH ITERATION:
   MAX. CHANGE        NODE  MAX. CHANGE        NODE  MAX. CHANGE        NODE  MAX. CHANGE        NODE  MAX. CHANGE        NODE
 ------------------------------------------------------------------------------------------------------------------------------------
   0.56312E-03,       1688  0.79020E-05,       1281

 NO OUTPUT CONTROL FOR STRESS PERIOD        2   TIME STEP       13



          TIME SUMMARY AT END OF TIME STEP        13 IN STRESS PERIOD         2
                    SECONDS     MINUTES      HOURS       DAYS        YEARS
                    -----------------------------------------------------------
   TIME STEP LENGTH  86.400      1.4400     2.40000E-02 1.00000E-03 2.73785E-06
 STRESS PERIOD TIME  1123.2      18.720     0.31200     1.30000E-02 3.55921E-05
         TOTAL TIME  87523.      1458.7      24.312      1.0130     2.77344E-03
1
 ------------------------------------------------------------------------------------------------------------
 
 SOLVING FOR TRANSPORT 

          SEQUENTIAL TRANSPORT ITERATION LOOP NUMBER    1
          -----------------------------------------------

 ------------------------------------------------------------------------------------------------------------------------
     1 CALLS TO SPARSE MATRIX SOLVER PACKAGE IN TRANSPORT TIME STEP      13 STRESS PERIOD       2 SPECIES  1

 TOTAL OF       1OUTER ITERATIONS
  MAXIMUM CHANGE FOR EACH ITERATION:
   MAX. CHANGE        NODE  MAX. CHANGE        NODE  MAX. CHANGE        NODE  MAX. CHANGE        NODE  MAX. CHANGE        NODE
 ------------------------------------------------------------------------------------------------------------------------------------
   -2.4626    ,         16
     TRANSPORT SOLUTION COMPLETE FOR COMPONENT SPECIES NUMBER    1
     ------------------------------------------------------------

 TRANSPORT SOLUTION COMPLETE FOR ALL SPECIES, SORTING OUTPUT FOR CONCENTRATIONS AND MASS BALANCE
 ----------------------------------------------------------------------------------------------------
     TRANSPORT OUTPUT FOR COMPONENT SPECIES NUMBER    1
     ------------------------------------------------------------
 -------------------------------------------------------------------------------------
 
 SOLVING FOR HEAD 

 Outer-Iteration  Inner-Iteration  Backtracking  Number of        Incoming       Outgoing      Cutoff     Maximum Head Change      Maximum Head Change
     Number           Count           Flag       Backtracks       Residual       Residual      Residual            Value               Location
        1                             0             0          0.191386         0.191386       -1.00000    
        1               16                                                                                       0.528375E-03               1529           GWF-node number
        2                             0             0          0.685302E-05     0.685302E-05   -1.00000    
        2                4                                                                                       0.784319E-05               1282           GWF-node number
     2 CALLS TO SPARSE MATRIX SOLVER PACKAGE  IN FLOW TIME STEP      14 STRESS PERIOD       2

 TOTAL OF       2OUTER ITERATIONS
  MAXIMUM CHANGE FOR EACH ITERATION:
   MAX. CHANGE        NODE  MAX. CHANGE        NODE  MAX. CHANGE        NODE  MAX. CHANGE        NODE  MAX. CHANGE        NODE
 ------------------------------------------------------------------------------------------------------------------------------------
   0.52838E-03,       1529  0.78432E-05,       1282

 NO OUTPUT CONTROL FOR STRESS PERIOD        2   TIME STEP       14



          TIME SUMMARY AT END OF TIME STEP        14 IN STRESS PERIOD         2
                    SECONDS     MINUTES      HOURS       DAYS        YEARS
                    -----------------------------------------------------------
   TIME STEP LENGTH  86.400      1.4400     2.40000E-02 1.00000E-03 2.73785E-06
 STRESS PERIOD TIME  1209.6      20.160     0.33600     1.40000E-02 3.83299E-05
         TOTAL TIME  87610.      1460.2      24.336      1.0140     2.77618E-03
1
 ------------------------------------------------------------------------------------------------------------
 
 SOLVING FOR TRANSPORT 

          SEQUENTIAL TRANSPORT ITERATION LOOP NUMBER    1
          -----------------------------------------------

 ------------------------------------------------------------------------------------------------------------------------
     1 CALLS TO SPARSE MATRIX SOLVER PACKAGE IN TRANSPORT TIME STEP      14 STRESS PERIOD       2 SPECIES  1

 TOTAL OF       1OUTER ITERATIONS
  MAXIMUM CHANGE FOR EACH ITERATION:
   MAX. CHANGE        NODE  MAX. CHANGE        NODE  MAX. CHANGE        NODE  MAX. CHANGE        NODE  MAX. CHANGE        NODE
 ------------------------------------------------------------------------------------------------------------------------------------
   -2.3796    ,         18
     TRANSPORT SOLUTION COMPLETE FOR COMPONENT SPECIES NUMBER    1
     ------------------------------------------------------------

 TRANSPORT SOLUTION COMPLETE FOR ALL SPECIES, SORTING OUTPUT FOR CONCENTRATIONS AND MASS BALANCE
 ----------------------------------------------------------------------------------------------------
     TRANSPORT OUTPUT FOR COMPONENT SPECIES NUMBER    1
     ------------------------------------------------------------
 -------------------------------------------------------------------------------------
 
 SOLVING FOR HEAD 

 Outer-Iteration  Inner-Iteration  Backtracking  Number of        Incoming       Outgoing      Cutoff     Maximum Head Change      Maximum Head Change
     Number           Count           Flag       Backtracks       Residual       Residual      Residual            Value               Location
        1                             0             0          0.145172         0.145172       -1.00000    
        1               17                                                                                       0.500970E-03               1450           GWF-node number
        2                             0             0          0.463938E-05     0.463938E-05   -1.00000    
        2                5                                                                                       0.710225E-05               1282           GWF-node number
     2 CALLS TO SPARSE MATRIX SOLVER PACKAGE  IN FLOW TIME STEP      15 STRESS PERIOD       2

 TOTAL OF       2OUTER ITERATIONS
  MAXIMUM CHANGE FOR EACH ITERATION:
   MAX. CHANGE        NODE  MAX. CHANGE        NODE  MAX. CHANGE        NODE  MAX. CHANGE        NODE  MAX. CHANGE        NODE
 ------------------------------------------------------------------------------------------------------------------------------------
   0.50097E-03,       1450  0.71023E-05,       1282

 NO OUTPUT CONTROL FOR STRESS PERIOD        2   TIME STEP       15



          TIME SUMMARY AT END OF TIME STEP        15 IN STRESS PERIOD         2
                    SECONDS     MINUTES      HOURS       DAYS        YEARS
                    -----------------------------------------------------------
   TIME STEP LENGTH  86.400      1.4400     2.40000E-02 1.00000E-03 2.73785E-06
 STRESS PERIOD TIME  1296.0      21.600     0.36000     1.50000E-02 4.10678E-05
         TOTAL TIME  87696.      1461.6      24.360      1.0150     2.77892E-03
1
 ------------------------------------------------------------------------------------------------------------
 
 SOLVING FOR TRANSPORT 

          SEQUENTIAL TRANSPORT ITERATION LOOP NUMBER    1
          -----------------------------------------------

 ------------------------------------------------------------------------------------------------------------------------
     1 CALLS TO SPARSE MATRIX SOLVER PACKAGE IN TRANSPORT TIME STEP      15 STRESS PERIOD       2 SPECIES  1

 TOTAL OF       1OUTER ITERATIONS
  MAXIMUM CHANGE FOR EACH ITERATION:
   MAX. CHANGE        NODE  MAX. CHANGE        NODE  MAX. CHANGE        NODE  MAX. CHANGE        NODE  MAX. CHANGE        NODE
 ------------------------------------------------------------------------------------------------------------------------------------
   -2.3033    ,         19
     TRANSPORT SOLUTION COMPLETE FOR COMPONENT SPECIES NUMBER    1
     ------------------------------------------------------------

 TRANSPORT SOLUTION COMPLETE FOR ALL SPECIES, SORTING OUTPUT FOR CONCENTRATIONS AND MASS BALANCE
 ----------------------------------------------------------------------------------------------------
     TRANSPORT OUTPUT FOR COMPONENT SPECIES NUMBER    1
     ------------------------------------------------------------
 -------------------------------------------------------------------------------------
 
 SOLVING FOR HEAD 

 Outer-Iteration  Inner-Iteration  Backtracking  Number of        Incoming       Outgoing      Cutoff     Maximum Head Change      Maximum Head Change
     Number           Count           Flag       Backtracks       Residual       Residual      Residual            Value               Location
        1                             0             0          0.114220         0.114220       -1.00000    
        1               18                                                                                       0.479540E-03               1371           GWF-node number
        2                             0             0          0.305404E-05     0.305404E-05   -1.00000    
        2                4                                                                                       0.711812E-05               1042           GWF-node number
     2 CALLS TO SPARSE MATRIX SOLVER PACKAGE  IN FLOW TIME STEP      16 STRESS PERIOD       2

 TOTAL OF       2OUTER ITERATIONS
  MAXIMUM CHANGE FOR EACH ITERATION:
   MAX. CHANGE        NODE  MAX. CHANGE        NODE  MAX. CHANGE        NODE  MAX. CHANGE        NODE  MAX. CHANGE        NODE
 ------------------------------------------------------------------------------------------------------------------------------------
   0.47954E-03,       1371  0.71181E-05,       1042

 NO OUTPUT CONTROL FOR STRESS PERIOD        2   TIME STEP       16



          TIME SUMMARY AT END OF TIME STEP        16 IN STRESS PERIOD         2
                    SECONDS     MINUTES      HOURS       DAYS        YEARS
                    -----------------------------------------------------------
   TIME STEP LENGTH  86.400      1.4400     2.40000E-02 1.00000E-03 2.73785E-06
 STRESS PERIOD TIME  1382.4      23.040     0.38400     1.60000E-02 4.38056E-05
         TOTAL TIME  87782.      1463.0      24.384      1.0160     2.78166E-03
1
 ------------------------------------------------------------------------------------------------------------
 
 SOLVING FOR TRANSPORT 

          SEQUENTIAL TRANSPORT ITERATION LOOP NUMBER    1
          -----------------------------------------------

 ------------------------------------------------------------------------------------------------------------------------
     1 CALLS TO SPARSE MATRIX SOLVER PACKAGE IN TRANSPORT TIME STEP      16 STRESS PERIOD       2 SPECIES  1

 TOTAL OF       1OUTER ITERATIONS
  MAXIMUM CHANGE FOR EACH ITERATION:
   MAX. CHANGE        NODE  MAX. CHANGE        NODE  MAX. CHANGE        NODE  MAX. CHANGE        NODE  MAX. CHANGE        NODE
 ------------------------------------------------------------------------------------------------------------------------------------
   -2.2296    ,         21
     TRANSPORT SOLUTION COMPLETE FOR COMPONENT SPECIES NUMBER    1
     ------------------------------------------------------------

 TRANSPORT SOLUTION COMPLETE FOR ALL SPECIES, SORTING OUTPUT FOR CONCENTRATIONS AND MASS BALANCE
 ----------------------------------------------------------------------------------------------------
     TRANSPORT OUTPUT FOR COMPONENT SPECIES NUMBER    1
     ------------------------------------------------------------
 -------------------------------------------------------------------------------------
 
 SOLVING FOR HEAD 

 Outer-Iteration  Inner-Iteration  Backtracking  Number of        Incoming       Outgoing      Cutoff     Maximum Head Change      Maximum Head Change
     Number           Count           Flag       Backtracks       Residual       Residual      Residual            Value               Location
        1                             0             0          0.910441E-01     0.910441E-01   -1.00000    
        1               19                                                                                       0.458730E-03               1292           GWF-node number
        2                             0             0          0.245374E-05     0.245374E-05   -1.00000    
        2                4                                                                                       0.706161E-05                161           GWF-node number
     2 CALLS TO SPARSE MATRIX SOLVER PACKAGE  IN FLOW TIME STEP      17 STRESS PERIOD       2

 TOTAL OF       2OUTER ITERATIONS
  MAXIMUM CHANGE FOR EACH ITERATION:
   MAX. CHANGE        NODE  MAX. CHANGE        NODE  MAX. CHANGE        NODE  MAX. CHANGE        NODE  MAX. CHANGE        NODE
 ------------------------------------------------------------------------------------------------------------------------------------
   0.45873E-03,       1292  0.70616E-05,        161

 NO OUTPUT CONTROL FOR STRESS PERIOD        2   TIME STEP       17



          TIME SUMMARY AT END OF TIME STEP        17 IN STRESS PERIOD         2
                    SECONDS     MINUTES      HOURS       DAYS        YEARS
                    -----------------------------------------------------------
   TIME STEP LENGTH  86.400      1.4400     2.40000E-02 1.00000E-03 2.73785E-06
 STRESS PERIOD TIME  1468.8      24.480     0.40800     1.70000E-02 4.65435E-05
         TOTAL TIME  87869.      1464.5      24.408      1.0170     2.78439E-03
1
 ------------------------------------------------------------------------------------------------------------
 
 SOLVING FOR TRANSPORT 

          SEQUENTIAL TRANSPORT ITERATION LOOP NUMBER    1
          -----------------------------------------------

 ------------------------------------------------------------------------------------------------------------------------
     1 CALLS TO SPARSE MATRIX SOLVER PACKAGE IN TRANSPORT TIME STEP      17 STRESS PERIOD       2 SPECIES  1

 TOTAL OF       1OUTER ITERATIONS
  MAXIMUM CHANGE FOR EACH ITERATION:
   MAX. CHANGE        NODE  MAX. CHANGE        NODE  MAX. CHANGE        NODE  MAX. CHANGE        NODE  MAX. CHANGE        NODE
 ------------------------------------------------------------------------------------------------------------------------------------
   -2.1638    ,         22
     TRANSPORT SOLUTION COMPLETE FOR COMPONENT SPECIES NUMBER    1
     ------------------------------------------------------------

 TRANSPORT SOLUTION COMPLETE FOR ALL SPECIES, SORTING OUTPUT FOR CONCENTRATIONS AND MASS BALANCE
 ----------------------------------------------------------------------------------------------------
     TRANSPORT OUTPUT FOR COMPONENT SPECIES NUMBER    1
     ------------------------------------------------------------
 -------------------------------------------------------------------------------------
 
 SOLVING FOR HEAD 

 Outer-Iteration  Inner-Iteration  Backtracking  Number of        Incoming       Outgoing      Cutoff     Maximum Head Change      Maximum Head Change
     Number           Count           Flag       Backtracks       Residual       Residual      Residual            Value               Location
        1                             0             0          0.744646E-01     0.744646E-01   -1.00000    
        1               18                                                                                       0.441141E-03               1293           GWF-node number
        2                             0             0          0.217792E-05     0.217792E-05   -1.00000    
        2                4                                                                                       0.587768E-05                  1           GWF-node number
     2 CALLS TO SPARSE MATRIX SOLVER PACKAGE  IN FLOW TIME STEP      18 STRESS PERIOD       2

 TOTAL OF       2OUTER ITERATIONS
  MAXIMUM CHANGE FOR EACH ITERATION:
   MAX. CHANGE        NODE  MAX. CHANGE        NODE  MAX. CHANGE        NODE  MAX. CHANGE        NODE  MAX. CHANGE        NODE
 ------------------------------------------------------------------------------------------------------------------------------------
   0.44114E-03,       1293  0.58777E-05,          1

 NO OUTPUT CONTROL FOR STRESS PERIOD        2   TIME STEP       18



          TIME SUMMARY AT END OF TIME STEP        18 IN STRESS PERIOD         2
                    SECONDS     MINUTES      HOURS       DAYS        YEARS
                    -----------------------------------------------------------
   TIME STEP LENGTH  86.400      1.4400     2.40000E-02 1.00000E-03 2.73785E-06
 STRESS PERIOD TIME  1555.2      25.920     0.43200     1.80000E-02 4.92813E-05
         TOTAL TIME  87955.      1465.9      24.432      1.0180     2.78713E-03
1
 ------------------------------------------------------------------------------------------------------------
 
 SOLVING FOR TRANSPORT 

          SEQUENTIAL TRANSPORT ITERATION LOOP NUMBER    1
          -----------------------------------------------

 ------------------------------------------------------------------------------------------------------------------------
     1 CALLS TO SPARSE MATRIX SOLVER PACKAGE IN TRANSPORT TIME STEP      18 STRESS PERIOD       2 SPECIES  1

 TOTAL OF       1OUTER ITERATIONS
  MAXIMUM CHANGE FOR EACH ITERATION:
   MAX. CHANGE        NODE  MAX. CHANGE        NODE  MAX. CHANGE        NODE  MAX. CHANGE        NODE  MAX. CHANGE        NODE
 ------------------------------------------------------------------------------------------------------------------------------------
   -2.1035    ,         24
     TRANSPORT SOLUTION COMPLETE FOR COMPONENT SPECIES NUMBER    1
     ------------------------------------------------------------

 TRANSPORT SOLUTION COMPLETE FOR ALL SPECIES, SORTING OUTPUT FOR CONCENTRATIONS AND MASS BALANCE
 ----------------------------------------------------------------------------------------------------
     TRANSPORT OUTPUT FOR COMPONENT SPECIES NUMBER    1
     ------------------------------------------------------------
 -------------------------------------------------------------------------------------
 
 SOLVING FOR HEAD 

 Outer-Iteration  Inner-Iteration  Backtracking  Number of        Incoming       Outgoing      Cutoff     Maximum Head Change      Maximum Head Change
     Number           Count           Flag       Backtracks       Residual       Residual      Residual            Value               Location
        1                             0             0          0.624166E-01     0.624166E-01   -1.00000    
        1               19                                                                                       0.425508E-03               1214           GWF-node number
        2                             0             0          0.181300E-05     0.181300E-05   -1.00000    
        2                7                                                                                       0.658407E-05                 81           GWF-node number
     2 CALLS TO SPARSE MATRIX SOLVER PACKAGE  IN FLOW TIME STEP      19 STRESS PERIOD       2

 TOTAL OF       2OUTER ITERATIONS
  MAXIMUM CHANGE FOR EACH ITERATION:
   MAX. CHANGE        NODE  MAX. CHANGE        NODE  MAX. CHANGE        NODE  MAX. CHANGE        NODE  MAX. CHANGE        NODE
 ------------------------------------------------------------------------------------------------------------------------------------
   0.42551E-03,       1214  0.65841E-05,         81

 NO OUTPUT CONTROL FOR STRESS PERIOD        2   TIME STEP       19



          TIME SUMMARY AT END OF TIME STEP        19 IN STRESS PERIOD         2
                    SECONDS     MINUTES      HOURS       DAYS        YEARS
                    -----------------------------------------------------------
   TIME STEP LENGTH  86.400      1.4400     2.40000E-02 1.00000E-03 2.73785E-06
 STRESS PERIOD TIME  1641.6      27.360     0.45600     1.90000E-02 5.20192E-05
         TOTAL TIME  88042.      1467.4      24.456      1.0190     2.78987E-03
1
 ------------------------------------------------------------------------------------------------------------
 
 SOLVING FOR TRANSPORT 

          SEQUENTIAL TRANSPORT ITERATION LOOP NUMBER    1
          -----------------------------------------------

 ------------------------------------------------------------------------------------------------------------------------
     1 CALLS TO SPARSE MATRIX SOLVER PACKAGE IN TRANSPORT TIME STEP      19 STRESS PERIOD       2 SPECIES  1

 TOTAL OF       1OUTER ITERATIONS
  MAXIMUM CHANGE FOR EACH ITERATION:
   MAX. CHANGE        NODE  MAX. CHANGE        NODE  MAX. CHANGE        NODE  MAX. CHANGE        NODE  MAX. CHANGE        NODE
 ------------------------------------------------------------------------------------------------------------------------------------
   -2.0533    ,         25
     TRANSPORT SOLUTION COMPLETE FOR COMPONENT SPECIES NUMBER    1
     ------------------------------------------------------------

 TRANSPORT SOLUTION COMPLETE FOR ALL SPECIES, SORTING OUTPUT FOR CONCENTRATIONS AND MASS BALANCE
 ----------------------------------------------------------------------------------------------------
     TRANSPORT OUTPUT FOR COMPONENT SPECIES NUMBER    1
     ------------------------------------------------------------
 -------------------------------------------------------------------------------------
 
 SOLVING FOR HEAD 

 Outer-Iteration  Inner-Iteration  Backtracking  Number of        Incoming       Outgoing      Cutoff     Maximum Head Change      Maximum Head Change
     Number           Count           Flag       Backtracks       Residual       Residual      Residual            Value               Location
        1                             0             0          0.542849E-01     0.542849E-01   -1.00000    
        1               15                                                                                       0.410285E-03               1215           GWF-node number
        2                             0             0          0.256970E-05     0.256970E-05   -1.00000    
        2                5                                                                                       0.566866E-05               1044           GWF-node number
     2 CALLS TO SPARSE MATRIX SOLVER PACKAGE  IN FLOW TIME STEP      20 STRESS PERIOD       2

 TOTAL OF       2OUTER ITERATIONS
  MAXIMUM CHANGE FOR EACH ITERATION:
   MAX. CHANGE        NODE  MAX. CHANGE        NODE  MAX. CHANGE        NODE  MAX. CHANGE        NODE  MAX. CHANGE        NODE
 ------------------------------------------------------------------------------------------------------------------------------------
   0.41028E-03,       1215  0.56687E-05,       1044

 NO OUTPUT CONTROL FOR STRESS PERIOD        2   TIME STEP       20



          TIME SUMMARY AT END OF TIME STEP        20 IN STRESS PERIOD         2
                    SECONDS     MINUTES      HOURS       DAYS        YEARS
                    -----------------------------------------------------------
   TIME STEP LENGTH  86.400      1.4400     2.40000E-02 1.00000E-03 2.73785E-06
 STRESS PERIOD TIME  1728.0      28.800     0.48000     2.00000E-02 5.47570E-05
         TOTAL TIME  88128.      1468.8      24.480      1.0200     2.79261E-03
1
 ------------------------------------------------------------------------------------------------------------
 
 SOLVING FOR TRANSPORT 

          SEQUENTIAL TRANSPORT ITERATION LOOP NUMBER    1
          -----------------------------------------------

 ------------------------------------------------------------------------------------------------------------------------
     1 CALLS TO SPARSE MATRIX SOLVER PACKAGE IN TRANSPORT TIME STEP      20 STRESS PERIOD       2 SPECIES  1

 TOTAL OF       1OUTER ITERATIONS
  MAXIMUM CHANGE FOR EACH ITERATION:
   MAX. CHANGE        NODE  MAX. CHANGE        NODE  MAX. CHANGE        NODE  MAX. CHANGE        NODE  MAX. CHANGE        NODE
 ------------------------------------------------------------------------------------------------------------------------------------
   -1.9908    ,         27
     TRANSPORT SOLUTION COMPLETE FOR COMPONENT SPECIES NUMBER    1
     ------------------------------------------------------------

 TRANSPORT SOLUTION COMPLETE FOR ALL SPECIES, SORTING OUTPUT FOR CONCENTRATIONS AND MASS BALANCE
 ----------------------------------------------------------------------------------------------------
     TRANSPORT OUTPUT FOR COMPONENT SPECIES NUMBER    1
     ------------------------------------------------------------
 -------------------------------------------------------------------------------------
 
 SOLVING FOR HEAD 

 Outer-Iteration  Inner-Iteration  Backtracking  Number of        Incoming       Outgoing      Cutoff     Maximum Head Change      Maximum Head Change
     Number           Count           Flag       Backtracks       Residual       Residual      Residual            Value               Location
        1                             0             0          0.465917E-01     0.465917E-01   -1.00000    
        1               19                                                                                       0.397632E-03               1136           GWF-node number
        2                             0             0          0.139502E-05     0.139502E-05   -1.00000    
        2                4                                                                                       0.633670E-05                  1           GWF-node number
     2 CALLS TO SPARSE MATRIX SOLVER PACKAGE  IN FLOW TIME STEP      21 STRESS PERIOD       2

 TOTAL OF       2OUTER ITERATIONS
  MAXIMUM CHANGE FOR EACH ITERATION:
   MAX. CHANGE        NODE  MAX. CHANGE        NODE  MAX. CHANGE        NODE  MAX. CHANGE        NODE  MAX. CHANGE        NODE
 ------------------------------------------------------------------------------------------------------------------------------------
   0.39763E-03,       1136  0.63367E-05,          1

 NO OUTPUT CONTROL FOR STRESS PERIOD        2   TIME STEP       21



          TIME SUMMARY AT END OF TIME STEP        21 IN STRESS PERIOD         2
                    SECONDS     MINUTES      HOURS       DAYS        YEARS
                    -----------------------------------------------------------
   TIME STEP LENGTH  86.400      1.4400     2.40000E-02 1.00000E-03 2.73785E-06
 STRESS PERIOD TIME  1814.4      30.240     0.50400     2.10000E-02 5.74949E-05
         TOTAL TIME  88214.      1470.2      24.504      1.0210     2.79535E-03
1
 ------------------------------------------------------------------------------------------------------------
 
 SOLVING FOR TRANSPORT 

          SEQUENTIAL TRANSPORT ITERATION LOOP NUMBER    1
          -----------------------------------------------

 ------------------------------------------------------------------------------------------------------------------------
     1 CALLS TO SPARSE MATRIX SOLVER PACKAGE IN TRANSPORT TIME STEP      21 STRESS PERIOD       2 SPECIES  1

 TOTAL OF       1OUTER ITERATIONS
  MAXIMUM CHANGE FOR EACH ITERATION:
   MAX. CHANGE        NODE  MAX. CHANGE        NODE  MAX. CHANGE        NODE  MAX. CHANGE        NODE  MAX. CHANGE        NODE
 ------------------------------------------------------------------------------------------------------------------------------------
   -1.9442    ,         28
     TRANSPORT SOLUTION COMPLETE FOR COMPONENT SPECIES NUMBER    1
     ------------------------------------------------------------

 TRANSPORT SOLUTION COMPLETE FOR ALL SPECIES, SORTING OUTPUT FOR CONCENTRATIONS AND MASS BALANCE
 ----------------------------------------------------------------------------------------------------
     TRANSPORT OUTPUT FOR COMPONENT SPECIES NUMBER    1
     ------------------------------------------------------------
 -------------------------------------------------------------------------------------
 
 SOLVING FOR HEAD 

 Outer-Iteration  Inner-Iteration  Backtracking  Number of        Incoming       Outgoing      Cutoff     Maximum Head Change      Maximum Head Change
     Number           Count           Flag       Backtracks       Residual       Residual      Residual            Value               Location
        1                             0             0          0.420938E-01     0.420938E-01   -1.00000    
        1               15                                                                                       0.384377E-03               1216           GWF-node number
        2                             0             0          0.141500E-05     0.141500E-05   -1.00000    
        2                4                                                                                       0.598427E-05                 81           GWF-node number
     2 CALLS TO SPARSE MATRIX SOLVER PACKAGE  IN FLOW TIME STEP      22 STRESS PERIOD       2

 TOTAL OF       2OUTER ITERATIONS
  MAXIMUM CHANGE FOR EACH ITERATION:
   MAX. CHANGE        NODE  MAX. CHANGE        NODE  MAX. CHANGE        NODE  MAX. CHANGE        NODE  MAX. CHANGE        NODE
 ------------------------------------------------------------------------------------------------------------------------------------
   0.38438E-03,       1216  0.59843E-05,         81

 NO OUTPUT CONTROL FOR STRESS PERIOD        2   TIME STEP       22



          TIME SUMMARY AT END OF TIME STEP        22 IN STRESS PERIOD         2
                    SECONDS     MINUTES      HOURS       DAYS        YEARS
                    -----------------------------------------------------------
   TIME STEP LENGTH  86.400      1.4400     2.40000E-02 1.00000E-03 2.73785E-06
 STRESS PERIOD TIME  1900.8      31.680     0.52800     2.20000E-02 6.02327E-05
         TOTAL TIME  88301.      1471.7      24.528      1.0220     2.79808E-03
1
 ------------------------------------------------------------------------------------------------------------
 
 SOLVING FOR TRANSPORT 

          SEQUENTIAL TRANSPORT ITERATION LOOP NUMBER    1
          -----------------------------------------------

 ------------------------------------------------------------------------------------------------------------------------
     1 CALLS TO SPARSE MATRIX SOLVER PACKAGE IN TRANSPORT TIME STEP      22 STRESS PERIOD       2 SPECIES  1

 TOTAL OF       1OUTER ITERATIONS
  MAXIMUM CHANGE FOR EACH ITERATION:
   MAX. CHANGE        NODE  MAX. CHANGE        NODE  MAX. CHANGE        NODE  MAX. CHANGE        NODE  MAX. CHANGE        NODE
 ------------------------------------------------------------------------------------------------------------------------------------
   -1.8961    ,         29
     TRANSPORT SOLUTION COMPLETE FOR COMPONENT SPECIES NUMBER    1
     ------------------------------------------------------------

 TRANSPORT SOLUTION COMPLETE FOR ALL SPECIES, SORTING OUTPUT FOR CONCENTRATIONS AND MASS BALANCE
 ----------------------------------------------------------------------------------------------------
     TRANSPORT OUTPUT FOR COMPONENT SPECIES NUMBER    1
     ------------------------------------------------------------
 -------------------------------------------------------------------------------------
 
 SOLVING FOR HEAD 

 Outer-Iteration  Inner-Iteration  Backtracking  Number of        Incoming       Outgoing      Cutoff     Maximum Head Change      Maximum Head Change
     Number           Count           Flag       Backtracks       Residual       Residual      Residual            Value               Location
        1                             0             0          0.387115E-01     0.387115E-01   -1.00000    
        1               14                                                                                       0.372442E-03               1217           GWF-node number
        2                             0             0          0.174249E-05     0.174249E-05   -1.00000    
        2                4                                                                                       0.623545E-05                 81           GWF-node number
     2 CALLS TO SPARSE MATRIX SOLVER PACKAGE  IN FLOW TIME STEP      23 STRESS PERIOD       2

 TOTAL OF       2OUTER ITERATIONS
  MAXIMUM CHANGE FOR EACH ITERATION:
   MAX. CHANGE        NODE  MAX. CHANGE        NODE  MAX. CHANGE        NODE  MAX. CHANGE        NODE  MAX. CHANGE        NODE
 ------------------------------------------------------------------------------------------------------------------------------------
   0.37244E-03,       1217  0.62355E-05,         81

 NO OUTPUT CONTROL FOR STRESS PERIOD        2   TIME STEP       23



          TIME SUMMARY AT END OF TIME STEP        23 IN STRESS PERIOD         2
                    SECONDS     MINUTES      HOURS       DAYS        YEARS
                    -----------------------------------------------------------
   TIME STEP LENGTH  86.400      1.4400     2.40000E-02 1.00000E-03 2.73785E-06
 STRESS PERIOD TIME  1987.2      33.120     0.55200     2.30000E-02 6.29706E-05
         TOTAL TIME  88387.      1473.1      24.552      1.0230     2.80082E-03
1
 ------------------------------------------------------------------------------------------------------------
 
 SOLVING FOR TRANSPORT 

          SEQUENTIAL TRANSPORT ITERATION LOOP NUMBER    1
          -----------------------------------------------

 ------------------------------------------------------------------------------------------------------------------------
     1 CALLS TO SPARSE MATRIX SOLVER PACKAGE IN TRANSPORT TIME STEP      23 STRESS PERIOD       2 SPECIES  1

 TOTAL OF       1OUTER ITERATIONS
  MAXIMUM CHANGE FOR EACH ITERATION:
   MAX. CHANGE        NODE  MAX. CHANGE        NODE  MAX. CHANGE        NODE  MAX. CHANGE        NODE  MAX. CHANGE        NODE
 ------------------------------------------------------------------------------------------------------------------------------------
   -1.8542    ,         31
     TRANSPORT SOLUTION COMPLETE FOR COMPONENT SPECIES NUMBER    1
     ------------------------------------------------------------

 TRANSPORT SOLUTION COMPLETE FOR ALL SPECIES, SORTING OUTPUT FOR CONCENTRATIONS AND MASS BALANCE
 ----------------------------------------------------------------------------------------------------
     TRANSPORT OUTPUT FOR COMPONENT SPECIES NUMBER    1
     ------------------------------------------------------------
 -------------------------------------------------------------------------------------
 
 SOLVING FOR HEAD 

 Outer-Iteration  Inner-Iteration  Backtracking  Number of        Incoming       Outgoing      Cutoff     Maximum Head Change      Maximum Head Change
     Number           Count           Flag       Backtracks       Residual       Residual      Residual            Value               Location
        1                             0             0          0.361065E-01     0.361065E-01   -1.00000    
        1               14                                                                                       0.361336E-03               1218           GWF-node number
        2                             0             0          0.131071E-05     0.131071E-05   -1.00000    
        2                5                                                                                       0.556570E-05                  7           GWF-node number
     2 CALLS TO SPARSE MATRIX SOLVER PACKAGE  IN FLOW TIME STEP      24 STRESS PERIOD       2

 TOTAL OF       2OUTER ITERATIONS
  MAXIMUM CHANGE FOR EACH ITERATION:
   MAX. CHANGE        NODE  MAX. CHANGE        NODE  MAX. CHANGE        NODE  MAX. CHANGE        NODE  MAX. CHANGE        NODE
 ------------------------------------------------------------------------------------------------------------------------------------
   0.36134E-03,       1218  0.55657E-05,          7

 NO OUTPUT CONTROL FOR STRESS PERIOD        2   TIME STEP       24



          TIME SUMMARY AT END OF TIME STEP        24 IN STRESS PERIOD         2
                    SECONDS     MINUTES      HOURS       DAYS        YEARS
                    -----------------------------------------------------------
   TIME STEP LENGTH  86.400      1.4400     2.40000E-02 1.00000E-03 2.73785E-06
 STRESS PERIOD TIME  2073.6      34.560     0.57600     2.40000E-02 6.57084E-05
         TOTAL TIME  88474.      1474.6      24.576      1.0240     2.80356E-03
1
 ------------------------------------------------------------------------------------------------------------
 
 SOLVING FOR TRANSPORT 

          SEQUENTIAL TRANSPORT ITERATION LOOP NUMBER    1
          -----------------------------------------------

 ------------------------------------------------------------------------------------------------------------------------
     1 CALLS TO SPARSE MATRIX SOLVER PACKAGE IN TRANSPORT TIME STEP      24 STRESS PERIOD       2 SPECIES  1

 TOTAL OF       1OUTER ITERATIONS
  MAXIMUM CHANGE FOR EACH ITERATION:
   MAX. CHANGE        NODE  MAX. CHANGE        NODE  MAX. CHANGE        NODE  MAX. CHANGE        NODE  MAX. CHANGE        NODE
 ------------------------------------------------------------------------------------------------------------------------------------
   -1.8134    ,         32
     TRANSPORT SOLUTION COMPLETE FOR COMPONENT SPECIES NUMBER    1
     ------------------------------------------------------------

 TRANSPORT SOLUTION COMPLETE FOR ALL SPECIES, SORTING OUTPUT FOR CONCENTRATIONS AND MASS BALANCE
 ----------------------------------------------------------------------------------------------------
     TRANSPORT OUTPUT FOR COMPONENT SPECIES NUMBER    1
     ------------------------------------------------------------
 -------------------------------------------------------------------------------------
 
 SOLVING FOR HEAD 

 Outer-Iteration  Inner-Iteration  Backtracking  Number of        Incoming       Outgoing      Cutoff     Maximum Head Change      Maximum Head Change
     Number           Count           Flag       Backtracks       Residual       Residual      Residual            Value               Location
        1                             0             0          0.342243E-01     0.342243E-01   -1.00000    
        1               16                                                                                       0.351774E-03               1219           GWF-node number
        2                             0             0          0.135550E-05     0.135550E-05   -1.00000    
        2                4                                                                                       0.536386E-05                  7           GWF-node number
     2 CALLS TO SPARSE MATRIX SOLVER PACKAGE  IN FLOW TIME STEP      25 STRESS PERIOD       2

 TOTAL OF       2OUTER ITERATIONS
  MAXIMUM CHANGE FOR EACH ITERATION:
   MAX. CHANGE        NODE  MAX. CHANGE        NODE  MAX. CHANGE        NODE  MAX. CHANGE        NODE  MAX. CHANGE        NODE
 ------------------------------------------------------------------------------------------------------------------------------------
   0.35177E-03,       1219  0.53639E-05,          7

 NO OUTPUT CONTROL FOR STRESS PERIOD        2   TIME STEP       25



          TIME SUMMARY AT END OF TIME STEP        25 IN STRESS PERIOD         2
                    SECONDS     MINUTES      HOURS       DAYS        YEARS
                    -----------------------------------------------------------
   TIME STEP LENGTH  86.400      1.4400     2.40000E-02 1.00000E-03 2.73785E-06
 STRESS PERIOD TIME  2160.0      36.000     0.60000     2.50000E-02 6.84463E-05
         TOTAL TIME  88560.      1476.0      24.600      1.0250     2.80630E-03
1
 ------------------------------------------------------------------------------------------------------------
 
 SOLVING FOR TRANSPORT 

          SEQUENTIAL TRANSPORT ITERATION LOOP NUMBER    1
          -----------------------------------------------

 ------------------------------------------------------------------------------------------------------------------------
     1 CALLS TO SPARSE MATRIX SOLVER PACKAGE IN TRANSPORT TIME STEP      25 STRESS PERIOD       2 SPECIES  1

 TOTAL OF       1OUTER ITERATIONS
  MAXIMUM CHANGE FOR EACH ITERATION:
   MAX. CHANGE        NODE  MAX. CHANGE        NODE  MAX. CHANGE        NODE  MAX. CHANGE        NODE  MAX. CHANGE        NODE
 ------------------------------------------------------------------------------------------------------------------------------------
   -1.7685    ,         33
     TRANSPORT SOLUTION COMPLETE FOR COMPONENT SPECIES NUMBER    1
     ------------------------------------------------------------

 TRANSPORT SOLUTION COMPLETE FOR ALL SPECIES, SORTING OUTPUT FOR CONCENTRATIONS AND MASS BALANCE
 ----------------------------------------------------------------------------------------------------
     TRANSPORT OUTPUT FOR COMPONENT SPECIES NUMBER    1
     ------------------------------------------------------------
 -------------------------------------------------------------------------------------
 
 SOLVING FOR HEAD 

 Outer-Iteration  Inner-Iteration  Backtracking  Number of        Incoming       Outgoing      Cutoff     Maximum Head Change      Maximum Head Change
     Number           Count           Flag       Backtracks       Residual       Residual      Residual            Value               Location
        1                             0             0          0.322378E-01     0.322378E-01   -1.00000    
        1               16                                                                                       0.341395E-03               1220           GWF-node number
        2                             0             0          0.124298E-05     0.124298E-05   -1.00000    
        2                4                                                                                       0.484866E-05                  7           GWF-node number
     2 CALLS TO SPARSE MATRIX SOLVER PACKAGE  IN FLOW TIME STEP      26 STRESS PERIOD       2

 TOTAL OF       2OUTER ITERATIONS
  MAXIMUM CHANGE FOR EACH ITERATION:
   MAX. CHANGE        NODE  MAX. CHANGE        NODE  MAX. CHANGE        NODE  MAX. CHANGE        NODE  MAX. CHANGE        NODE
 ------------------------------------------------------------------------------------------------------------------------------------
   0.34139E-03,       1220  0.48487E-05,          7

 NO OUTPUT CONTROL FOR STRESS PERIOD        2   TIME STEP       26



          TIME SUMMARY AT END OF TIME STEP        26 IN STRESS PERIOD         2
                    SECONDS     MINUTES      HOURS       DAYS        YEARS
                    -----------------------------------------------------------
   TIME STEP LENGTH  86.400      1.4400     2.40000E-02 1.00000E-03 2.73785E-06
 STRESS PERIOD TIME  2246.4      37.440     0.62400     2.60000E-02 7.11841E-05
         TOTAL TIME  88646.      1477.4      24.624      1.0260     2.80903E-03
1
 ------------------------------------------------------------------------------------------------------------
 
 SOLVING FOR TRANSPORT 

          SEQUENTIAL TRANSPORT ITERATION LOOP NUMBER    1
          -----------------------------------------------

 ------------------------------------------------------------------------------------------------------------------------
     1 CALLS TO SPARSE MATRIX SOLVER PACKAGE IN TRANSPORT TIME STEP      26 STRESS PERIOD       2 SPECIES  1

 TOTAL OF       1OUTER ITERATIONS
  MAXIMUM CHANGE FOR EACH ITERATION:
   MAX. CHANGE        NODE  MAX. CHANGE        NODE  MAX. CHANGE        NODE  MAX. CHANGE        NODE  MAX. CHANGE        NODE
 ------------------------------------------------------------------------------------------------------------------------------------
   -1.7333    ,         35
     TRANSPORT SOLUTION COMPLETE FOR COMPONENT SPECIES NUMBER    1
     ------------------------------------------------------------

 TRANSPORT SOLUTION COMPLETE FOR ALL SPECIES, SORTING OUTPUT FOR CONCENTRATIONS AND MASS BALANCE
 ----------------------------------------------------------------------------------------------------
     TRANSPORT OUTPUT FOR COMPONENT SPECIES NUMBER    1
     ------------------------------------------------------------
 -------------------------------------------------------------------------------------
 
 SOLVING FOR HEAD 

 Outer-Iteration  Inner-Iteration  Backtracking  Number of        Incoming       Outgoing      Cutoff     Maximum Head Change      Maximum Head Change
     Number           Count           Flag       Backtracks       Residual       Residual      Residual            Value               Location
        1                             0             0          0.309246E-01     0.309246E-01   -1.00000    
        1               18                                                                                       0.332543E-03               1221           GWF-node number
        2                             0             0          0.104418E-05     0.104418E-05   -1.00000    
        2                3                                                                                       0.462347E-05                 12           GWF-node number
     2 CALLS TO SPARSE MATRIX SOLVER PACKAGE  IN FLOW TIME STEP      27 STRESS PERIOD       2

 TOTAL OF       2OUTER ITERATIONS
  MAXIMUM CHANGE FOR EACH ITERATION:
   MAX. CHANGE        NODE  MAX. CHANGE        NODE  MAX. CHANGE        NODE  MAX. CHANGE        NODE  MAX. CHANGE        NODE
 ------------------------------------------------------------------------------------------------------------------------------------
   0.33254E-03,       1221  0.46235E-05,         12

 NO OUTPUT CONTROL FOR STRESS PERIOD        2   TIME STEP       27



          TIME SUMMARY AT END OF TIME STEP        27 IN STRESS PERIOD         2
                    SECONDS     MINUTES      HOURS       DAYS        YEARS
                    -----------------------------------------------------------
   TIME STEP LENGTH  86.400      1.4400     2.40000E-02 1.00000E-03 2.73785E-06
 STRESS PERIOD TIME  2332.8      38.880     0.64800     2.70000E-02 7.39220E-05
         TOTAL TIME  88733.      1478.9      24.648      1.0270     2.81177E-03
1
 ------------------------------------------------------------------------------------------------------------
 
 SOLVING FOR TRANSPORT 

          SEQUENTIAL TRANSPORT ITERATION LOOP NUMBER    1
          -----------------------------------------------

 ------------------------------------------------------------------------------------------------------------------------
     1 CALLS TO SPARSE MATRIX SOLVER PACKAGE IN TRANSPORT TIME STEP      27 STRESS PERIOD       2 SPECIES  1

 TOTAL OF       1OUTER ITERATIONS
  MAXIMUM CHANGE FOR EACH ITERATION:
   MAX. CHANGE        NODE  MAX. CHANGE        NODE  MAX. CHANGE        NODE  MAX. CHANGE        NODE  MAX. CHANGE        NODE
 ------------------------------------------------------------------------------------------------------------------------------------
   -1.6957    ,         36
     TRANSPORT SOLUTION COMPLETE FOR COMPONENT SPECIES NUMBER    1
     ------------------------------------------------------------

 TRANSPORT SOLUTION COMPLETE FOR ALL SPECIES, SORTING OUTPUT FOR CONCENTRATIONS AND MASS BALANCE
 ----------------------------------------------------------------------------------------------------
     TRANSPORT OUTPUT FOR COMPONENT SPECIES NUMBER    1
     ------------------------------------------------------------
 -------------------------------------------------------------------------------------
 
 SOLVING FOR HEAD 

 Outer-Iteration  Inner-Iteration  Backtracking  Number of        Incoming       Outgoing      Cutoff     Maximum Head Change      Maximum Head Change
     Number           Count           Flag       Backtracks       Residual       Residual      Residual            Value               Location
        1                             0             0          0.297547E-01     0.297547E-01   -1.00000    
        1               17                                                                                       0.323435E-03               1222           GWF-node number
        2                             0             0          0.102865E-05     0.102865E-05   -1.00000    
        2                5                                                                                       0.468311E-05                 11           GWF-node number
     2 CALLS TO SPARSE MATRIX SOLVER PACKAGE  IN FLOW TIME STEP      28 STRESS PERIOD       2

 TOTAL OF       2OUTER ITERATIONS
  MAXIMUM CHANGE FOR EACH ITERATION:
   MAX. CHANGE        NODE  MAX. CHANGE        NODE  MAX. CHANGE        NODE  MAX. CHANGE        NODE  MAX. CHANGE        NODE
 ------------------------------------------------------------------------------------------------------------------------------------
   0.32343E-03,       1222  0.46831E-05,         11

 NO OUTPUT CONTROL FOR STRESS PERIOD        2   TIME STEP       28



          TIME SUMMARY AT END OF TIME STEP        28 IN STRESS PERIOD         2
                    SECONDS     MINUTES      HOURS       DAYS        YEARS
                    -----------------------------------------------------------
   TIME STEP LENGTH  86.400      1.4400     2.40000E-02 1.00000E-03 2.73785E-06
 STRESS PERIOD TIME  2419.2      40.320     0.67200     2.80000E-02 7.66598E-05
         TOTAL TIME  88819.      1480.3      24.672      1.0280     2.81451E-03
1
 ------------------------------------------------------------------------------------------------------------
 
 SOLVING FOR TRANSPORT 

          SEQUENTIAL TRANSPORT ITERATION LOOP NUMBER    1
          -----------------------------------------------

 ------------------------------------------------------------------------------------------------------------------------
     1 CALLS TO SPARSE MATRIX SOLVER PACKAGE IN TRANSPORT TIME STEP      28 STRESS PERIOD       2 SPECIES  1

 TOTAL OF       1OUTER ITERATIONS
  MAXIMUM CHANGE FOR EACH ITERATION:
   MAX. CHANGE        NODE  MAX. CHANGE        NODE  MAX. CHANGE        NODE  MAX. CHANGE        NODE  MAX. CHANGE        NODE
 ------------------------------------------------------------------------------------------------------------------------------------
   -1.6640    ,         37
     TRANSPORT SOLUTION COMPLETE FOR COMPONENT SPECIES NUMBER    1
     ------------------------------------------------------------

 TRANSPORT SOLUTION COMPLETE FOR ALL SPECIES, SORTING OUTPUT FOR CONCENTRATIONS AND MASS BALANCE
 ----------------------------------------------------------------------------------------------------
     TRANSPORT OUTPUT FOR COMPONENT SPECIES NUMBER    1
     ------------------------------------------------------------
 -------------------------------------------------------------------------------------
 
 SOLVING FOR HEAD 

 Outer-Iteration  Inner-Iteration  Backtracking  Number of        Incoming       Outgoing      Cutoff     Maximum Head Change      Maximum Head Change
     Number           Count           Flag       Backtracks       Residual       Residual      Residual            Value               Location
        1                             0             0          0.285447E-01     0.285447E-01   -1.00000    
        1               15                                                                                       0.312967E-03               1143           GWF-node number
        2                             0             0          0.145759E-05     0.145759E-05   -1.00000    
        2                4                                                                                       0.600266E-05                 81           GWF-node number
     2 CALLS TO SPARSE MATRIX SOLVER PACKAGE  IN FLOW TIME STEP      29 STRESS PERIOD       2

 TOTAL OF       2OUTER ITERATIONS
  MAXIMUM CHANGE FOR EACH ITERATION:
   MAX. CHANGE        NODE  MAX. CHANGE        NODE  MAX. CHANGE        NODE  MAX. CHANGE        NODE  MAX. CHANGE        NODE
 ------------------------------------------------------------------------------------------------------------------------------------
   0.31297E-03,       1143  0.60027E-05,         81

 NO OUTPUT CONTROL FOR STRESS PERIOD        2   TIME STEP       29



          TIME SUMMARY AT END OF TIME STEP        29 IN STRESS PERIOD         2
                    SECONDS     MINUTES      HOURS       DAYS        YEARS
                    -----------------------------------------------------------
   TIME STEP LENGTH  86.400      1.4400     2.40000E-02 1.00000E-03 2.73785E-06
 STRESS PERIOD TIME  2505.6      41.760     0.69600     2.90000E-02 7.93977E-05
         TOTAL TIME  88906.      1481.8      24.696      1.0290     2.81725E-03
1
 ------------------------------------------------------------------------------------------------------------
 
 SOLVING FOR TRANSPORT 

          SEQUENTIAL TRANSPORT ITERATION LOOP NUMBER    1
          -----------------------------------------------

 ------------------------------------------------------------------------------------------------------------------------
     1 CALLS TO SPARSE MATRIX SOLVER PACKAGE IN TRANSPORT TIME STEP      29 STRESS PERIOD       2 SPECIES  1

 TOTAL OF       1OUTER ITERATIONS
  MAXIMUM CHANGE FOR EACH ITERATION:
   MAX. CHANGE        NODE  MAX. CHANGE        NODE  MAX. CHANGE        NODE  MAX. CHANGE        NODE  MAX. CHANGE        NODE
 ------------------------------------------------------------------------------------------------------------------------------------
   -1.6298    ,         39
     TRANSPORT SOLUTION COMPLETE FOR COMPONENT SPECIES NUMBER    1
     ------------------------------------------------------------

 TRANSPORT SOLUTION COMPLETE FOR ALL SPECIES, SORTING OUTPUT FOR CONCENTRATIONS AND MASS BALANCE
 ----------------------------------------------------------------------------------------------------
     TRANSPORT OUTPUT FOR COMPONENT SPECIES NUMBER    1
     ------------------------------------------------------------
 -------------------------------------------------------------------------------------
 
 SOLVING FOR HEAD 

 Outer-Iteration  Inner-Iteration  Backtracking  Number of        Incoming       Outgoing      Cutoff     Maximum Head Change      Maximum Head Change
     Number           Count           Flag       Backtracks       Residual       Residual      Residual            Value               Location
        1                             0             0          0.273099E-01     0.273099E-01   -1.00000    
        1               13                                                                                       0.304099E-03               1144           GWF-node number
        2                             0             0          0.290821E-05     0.290821E-05   -1.00000    
        2                4                                                                                       0.675410E-05                726           GWF-node number
     2 CALLS TO SPARSE MATRIX SOLVER PACKAGE  IN FLOW TIME STEP      30 STRESS PERIOD       2

 TOTAL OF       2OUTER ITERATIONS
  MAXIMUM CHANGE FOR EACH ITERATION:
   MAX. CHANGE        NODE  MAX. CHANGE        NODE  MAX. CHANGE        NODE  MAX. CHANGE        NODE  MAX. CHANGE        NODE
 ------------------------------------------------------------------------------------------------------------------------------------
   0.30410E-03,       1144  0.67541E-05,        726

 NO OUTPUT CONTROL FOR STRESS PERIOD        2   TIME STEP       30



          TIME SUMMARY AT END OF TIME STEP        30 IN STRESS PERIOD         2
                    SECONDS     MINUTES      HOURS       DAYS        YEARS
                    -----------------------------------------------------------
   TIME STEP LENGTH  86.400      1.4400     2.40000E-02 1.00000E-03 2.73785E-06
 STRESS PERIOD TIME  2592.0      43.200     0.72000     3.00000E-02 8.21355E-05
         TOTAL TIME  88992.      1483.2      24.720      1.0300     2.81999E-03
1
 ------------------------------------------------------------------------------------------------------------
 
 SOLVING FOR TRANSPORT 

          SEQUENTIAL TRANSPORT ITERATION LOOP NUMBER    1
          -----------------------------------------------

 ------------------------------------------------------------------------------------------------------------------------
     1 CALLS TO SPARSE MATRIX SOLVER PACKAGE IN TRANSPORT TIME STEP      30 STRESS PERIOD       2 SPECIES  1

 TOTAL OF       1OUTER ITERATIONS
  MAXIMUM CHANGE FOR EACH ITERATION:
   MAX. CHANGE        NODE  MAX. CHANGE        NODE  MAX. CHANGE        NODE  MAX. CHANGE        NODE  MAX. CHANGE        NODE
 ------------------------------------------------------------------------------------------------------------------------------------
   -1.6001    ,         40
     TRANSPORT SOLUTION COMPLETE FOR COMPONENT SPECIES NUMBER    1
     ------------------------------------------------------------

 TRANSPORT SOLUTION COMPLETE FOR ALL SPECIES, SORTING OUTPUT FOR CONCENTRATIONS AND MASS BALANCE
 ----------------------------------------------------------------------------------------------------
     TRANSPORT OUTPUT FOR COMPONENT SPECIES NUMBER    1
     ------------------------------------------------------------
 -------------------------------------------------------------------------------------
 
 SOLVING FOR HEAD 

 Outer-Iteration  Inner-Iteration  Backtracking  Number of        Incoming       Outgoing      Cutoff     Maximum Head Change      Maximum Head Change
     Number           Count           Flag       Backtracks       Residual       Residual      Residual            Value               Location
        1                             0             0          0.266581E-01     0.266581E-01   -1.00000    
        1               15                                                                                       0.299713E-03               1145           GWF-node number
        2                             0             0          0.170186E-05     0.170186E-05   -1.00000    
        2                5                                                                                       0.353762E-05                 21           GWF-node number
     2 CALLS TO SPARSE MATRIX SOLVER PACKAGE  IN FLOW TIME STEP      31 STRESS PERIOD       2

 TOTAL OF       2OUTER ITERATIONS
  MAXIMUM CHANGE FOR EACH ITERATION:
   MAX. CHANGE        NODE  MAX. CHANGE        NODE  MAX. CHANGE        NODE  MAX. CHANGE        NODE  MAX. CHANGE        NODE
 ------------------------------------------------------------------------------------------------------------------------------------
   0.29971E-03,       1145  0.35376E-05,         21

 NO OUTPUT CONTROL FOR STRESS PERIOD        2   TIME STEP       31



          TIME SUMMARY AT END OF TIME STEP        31 IN STRESS PERIOD         2
                    SECONDS     MINUTES      HOURS       DAYS        YEARS
                    -----------------------------------------------------------
   TIME STEP LENGTH  86.400      1.4400     2.40000E-02 1.00000E-03 2.73785E-06
 STRESS PERIOD TIME  2678.4      44.640     0.74400     3.10000E-02 8.48734E-05
         TOTAL TIME  89078.      1484.6      24.744      1.0310     2.82272E-03
1
 ------------------------------------------------------------------------------------------------------------
 
 SOLVING FOR TRANSPORT 

          SEQUENTIAL TRANSPORT ITERATION LOOP NUMBER    1
          -----------------------------------------------

 ------------------------------------------------------------------------------------------------------------------------
     1 CALLS TO SPARSE MATRIX SOLVER PACKAGE IN TRANSPORT TIME STEP      31 STRESS PERIOD       2 SPECIES  1

 TOTAL OF       1OUTER ITERATIONS
  MAXIMUM CHANGE FOR EACH ITERATION:
   MAX. CHANGE        NODE  MAX. CHANGE        NODE  MAX. CHANGE        NODE  MAX. CHANGE        NODE  MAX. CHANGE        NODE
 ------------------------------------------------------------------------------------------------------------------------------------
   -1.5678    ,         41
     TRANSPORT SOLUTION COMPLETE FOR COMPONENT SPECIES NUMBER    1
     ------------------------------------------------------------

 TRANSPORT SOLUTION COMPLETE FOR ALL SPECIES, SORTING OUTPUT FOR CONCENTRATIONS AND MASS BALANCE
 ----------------------------------------------------------------------------------------------------
     TRANSPORT OUTPUT FOR COMPONENT SPECIES NUMBER    1
     ------------------------------------------------------------
 -------------------------------------------------------------------------------------
 
 SOLVING FOR HEAD 

 Outer-Iteration  Inner-Iteration  Backtracking  Number of        Incoming       Outgoing      Cutoff     Maximum Head Change      Maximum Head Change
     Number           Count           Flag       Backtracks       Residual       Residual      Residual            Value               Location
        1                             0             0          0.260552E-01     0.260552E-01   -1.00000    
        1               15                                                                                       0.291862E-03               1146           GWF-node number
        2                             0             0          0.171764E-05     0.171764E-05   -1.00000    
        2                5                                                                                       0.343840E-05                 23           GWF-node number
     2 CALLS TO SPARSE MATRIX SOLVER PACKAGE  IN FLOW TIME STEP      32 STRESS PERIOD       2

 TOTAL OF       2OUTER ITERATIONS
  MAXIMUM CHANGE FOR EACH ITERATION:
   MAX. CHANGE        NODE  MAX. CHANGE        NODE  MAX. CHANGE        NODE  MAX. CHANGE        NODE  MAX. CHANGE        NODE
 ------------------------------------------------------------------------------------------------------------------------------------
   0.29186E-03,       1146  0.34384E-05,         23

 NO OUTPUT CONTROL FOR STRESS PERIOD        2   TIME STEP       32



          TIME SUMMARY AT END OF TIME STEP        32 IN STRESS PERIOD         2
                    SECONDS     MINUTES      HOURS       DAYS        YEARS
                    -----------------------------------------------------------
   TIME STEP LENGTH  86.400      1.4400     2.40000E-02 1.00000E-03 2.73785E-06
 STRESS PERIOD TIME  2764.8      46.080     0.76800     3.20000E-02 8.76112E-05
         TOTAL TIME  89165.      1486.1      24.768      1.0320     2.82546E-03
1
 ------------------------------------------------------------------------------------------------------------
 
 SOLVING FOR TRANSPORT 

          SEQUENTIAL TRANSPORT ITERATION LOOP NUMBER    1
          -----------------------------------------------

 ------------------------------------------------------------------------------------------------------------------------
     1 CALLS TO SPARSE MATRIX SOLVER PACKAGE IN TRANSPORT TIME STEP      32 STRESS PERIOD       2 SPECIES  1

 TOTAL OF       1OUTER ITERATIONS
  MAXIMUM CHANGE FOR EACH ITERATION:
   MAX. CHANGE        NODE  MAX. CHANGE        NODE  MAX. CHANGE        NODE  MAX. CHANGE        NODE  MAX. CHANGE        NODE
 ------------------------------------------------------------------------------------------------------------------------------------
   -1.5390    ,         43
     TRANSPORT SOLUTION COMPLETE FOR COMPONENT SPECIES NUMBER    1
     ------------------------------------------------------------

 TRANSPORT SOLUTION COMPLETE FOR ALL SPECIES, SORTING OUTPUT FOR CONCENTRATIONS AND MASS BALANCE
 ----------------------------------------------------------------------------------------------------
     TRANSPORT OUTPUT FOR COMPONENT SPECIES NUMBER    1
     ------------------------------------------------------------
 -------------------------------------------------------------------------------------
 
 SOLVING FOR HEAD 

 Outer-Iteration  Inner-Iteration  Backtracking  Number of        Incoming       Outgoing      Cutoff     Maximum Head Change      Maximum Head Change
     Number           Count           Flag       Backtracks       Residual       Residual      Residual            Value               Location
        1                             0             0          0.252970E-01     0.252970E-01   -1.00000    
        1               15                                                                                       0.284722E-03               1147           GWF-node number
        2                             0             0          0.159303E-05     0.159303E-05   -1.00000    
        2                5                                                                                       0.353515E-05                 26           GWF-node number
     2 CALLS TO SPARSE MATRIX SOLVER PACKAGE  IN FLOW TIME STEP      33 STRESS PERIOD       2

 TOTAL OF       2OUTER ITERATIONS
  MAXIMUM CHANGE FOR EACH ITERATION:
   MAX. CHANGE        NODE  MAX. CHANGE        NODE  MAX. CHANGE        NODE  MAX. CHANGE        NODE  MAX. CHANGE        NODE
 ------------------------------------------------------------------------------------------------------------------------------------
   0.28472E-03,       1147  0.35351E-05,         26

 NO OUTPUT CONTROL FOR STRESS PERIOD        2   TIME STEP       33



          TIME SUMMARY AT END OF TIME STEP        33 IN STRESS PERIOD         2
                    SECONDS     MINUTES      HOURS       DAYS        YEARS
                    -----------------------------------------------------------
   TIME STEP LENGTH  86.400      1.4400     2.40000E-02 1.00000E-03 2.73785E-06
 STRESS PERIOD TIME  2851.2      47.520     0.79200     3.30000E-02 9.03491E-05
         TOTAL TIME  89251.      1487.5      24.792      1.0330     2.82820E-03
1
 ------------------------------------------------------------------------------------------------------------
 
 SOLVING FOR TRANSPORT 

          SEQUENTIAL TRANSPORT ITERATION LOOP NUMBER    1
          -----------------------------------------------

 ------------------------------------------------------------------------------------------------------------------------
     1 CALLS TO SPARSE MATRIX SOLVER PACKAGE IN TRANSPORT TIME STEP      33 STRESS PERIOD       2 SPECIES  1

 TOTAL OF       1OUTER ITERATIONS
  MAXIMUM CHANGE FOR EACH ITERATION:
   MAX. CHANGE        NODE  MAX. CHANGE        NODE  MAX. CHANGE        NODE  MAX. CHANGE        NODE  MAX. CHANGE        NODE
 ------------------------------------------------------------------------------------------------------------------------------------
   -1.5114    ,         44
     TRANSPORT SOLUTION COMPLETE FOR COMPONENT SPECIES NUMBER    1
     ------------------------------------------------------------

 TRANSPORT SOLUTION COMPLETE FOR ALL SPECIES, SORTING OUTPUT FOR CONCENTRATIONS AND MASS BALANCE
 ----------------------------------------------------------------------------------------------------
     TRANSPORT OUTPUT FOR COMPONENT SPECIES NUMBER    1
     ------------------------------------------------------------
 -------------------------------------------------------------------------------------
 
 SOLVING FOR HEAD 

 Outer-Iteration  Inner-Iteration  Backtracking  Number of        Incoming       Outgoing      Cutoff     Maximum Head Change      Maximum Head Change
     Number           Count           Flag       Backtracks       Residual       Residual      Residual            Value               Location
        1                             0             0          0.247032E-01     0.247032E-01   -1.00000    
        1               15                                                                                       0.277770E-03               1148           GWF-node number
        2                             0             0          0.154499E-05     0.154499E-05   -1.00000    
        2                5                                                                                       0.360511E-05                107           GWF-node number
     2 CALLS TO SPARSE MATRIX SOLVER PACKAGE  IN FLOW TIME STEP      34 STRESS PERIOD       2

 TOTAL OF       2OUTER ITERATIONS
  MAXIMUM CHANGE FOR EACH ITERATION:
   MAX. CHANGE        NODE  MAX. CHANGE        NODE  MAX. CHANGE        NODE  MAX. CHANGE        NODE  MAX. CHANGE        NODE
 ------------------------------------------------------------------------------------------------------------------------------------
   0.27777E-03,       1148  0.36051E-05,        107

 NO OUTPUT CONTROL FOR STRESS PERIOD        2   TIME STEP       34



          TIME SUMMARY AT END OF TIME STEP        34 IN STRESS PERIOD         2
                    SECONDS     MINUTES      HOURS       DAYS        YEARS
                    -----------------------------------------------------------
   TIME STEP LENGTH  86.400      1.4400     2.40000E-02 1.00000E-03 2.73785E-06
 STRESS PERIOD TIME  2937.6      48.960     0.81600     3.40000E-02 9.30869E-05
         TOTAL TIME  89338.      1489.0      24.816      1.0340     2.83094E-03
1
 ------------------------------------------------------------------------------------------------------------
 
 SOLVING FOR TRANSPORT 

          SEQUENTIAL TRANSPORT ITERATION LOOP NUMBER    1
          -----------------------------------------------

 ------------------------------------------------------------------------------------------------------------------------
     1 CALLS TO SPARSE MATRIX SOLVER PACKAGE IN TRANSPORT TIME STEP      34 STRESS PERIOD       2 SPECIES  1

 TOTAL OF       1OUTER ITERATIONS
  MAXIMUM CHANGE FOR EACH ITERATION:
   MAX. CHANGE        NODE  MAX. CHANGE        NODE  MAX. CHANGE        NODE  MAX. CHANGE        NODE  MAX. CHANGE        NODE
 ------------------------------------------------------------------------------------------------------------------------------------
   -1.4840    ,         45
     TRANSPORT SOLUTION COMPLETE FOR COMPONENT SPECIES NUMBER    1
     ------------------------------------------------------------

 TRANSPORT SOLUTION COMPLETE FOR ALL SPECIES, SORTING OUTPUT FOR CONCENTRATIONS AND MASS BALANCE
 ----------------------------------------------------------------------------------------------------
     TRANSPORT OUTPUT FOR COMPONENT SPECIES NUMBER    1
     ------------------------------------------------------------
 -------------------------------------------------------------------------------------
 
 SOLVING FOR HEAD 

 Outer-Iteration  Inner-Iteration  Backtracking  Number of        Incoming       Outgoing      Cutoff     Maximum Head Change      Maximum Head Change
     Number           Count           Flag       Backtracks       Residual       Residual      Residual            Value               Location
        1                             0             0          0.239398E-01     0.239398E-01   -1.00000    
        1               13                                                                                       0.272136E-03               1149           GWF-node number
        2                             0             0          0.596531E-05     0.596531E-05   -1.00000    
        2                3                                                                                      -0.399885E-05               3151           GWF-node number
     2 CALLS TO SPARSE MATRIX SOLVER PACKAGE  IN FLOW TIME STEP      35 STRESS PERIOD       2

 TOTAL OF       2OUTER ITERATIONS
  MAXIMUM CHANGE FOR EACH ITERATION:
   MAX. CHANGE        NODE  MAX. CHANGE        NODE  MAX. CHANGE        NODE  MAX. CHANGE        NODE  MAX. CHANGE        NODE
 ------------------------------------------------------------------------------------------------------------------------------------
   0.27214E-03,       1149 -0.39989E-05,       3151

 NO OUTPUT CONTROL FOR STRESS PERIOD        2   TIME STEP       35



          TIME SUMMARY AT END OF TIME STEP        35 IN STRESS PERIOD         2
                    SECONDS     MINUTES      HOURS       DAYS        YEARS
                    -----------------------------------------------------------
   TIME STEP LENGTH  86.400      1.4400     2.40000E-02 1.00000E-03 2.73785E-06
 STRESS PERIOD TIME  3024.0      50.400     0.84000     3.50000E-02 9.58248E-05
         TOTAL TIME  89424.      1490.4      24.840      1.0350     2.83368E-03
1
 ------------------------------------------------------------------------------------------------------------
 
 SOLVING FOR TRANSPORT 

          SEQUENTIAL TRANSPORT ITERATION LOOP NUMBER    1
          -----------------------------------------------

 ------------------------------------------------------------------------------------------------------------------------
     1 CALLS TO SPARSE MATRIX SOLVER PACKAGE IN TRANSPORT TIME STEP      35 STRESS PERIOD       2 SPECIES  1

 TOTAL OF       1OUTER ITERATIONS
  MAXIMUM CHANGE FOR EACH ITERATION:
   MAX. CHANGE        NODE  MAX. CHANGE        NODE  MAX. CHANGE        NODE  MAX. CHANGE        NODE  MAX. CHANGE        NODE
 ------------------------------------------------------------------------------------------------------------------------------------
   -1.4538    ,         46
     TRANSPORT SOLUTION COMPLETE FOR COMPONENT SPECIES NUMBER    1
     ------------------------------------------------------------

 TRANSPORT SOLUTION COMPLETE FOR ALL SPECIES, SORTING OUTPUT FOR CONCENTRATIONS AND MASS BALANCE
 ----------------------------------------------------------------------------------------------------
     TRANSPORT OUTPUT FOR COMPONENT SPECIES NUMBER    1
     ------------------------------------------------------------
 -------------------------------------------------------------------------------------
 
 SOLVING FOR HEAD 

 Outer-Iteration  Inner-Iteration  Backtracking  Number of        Incoming       Outgoing      Cutoff     Maximum Head Change      Maximum Head Change
     Number           Count           Flag       Backtracks       Residual       Residual      Residual            Value               Location
        1                             0             0          0.232767E-01     0.232767E-01   -1.00000    
        1               16                                                                                       0.265191E-03               1150           GWF-node number
        2                             0             0          0.103497E-05     0.103497E-05   -1.00000    
        2                3                                                                                       0.374231E-05                 25           GWF-node number
     2 CALLS TO SPARSE MATRIX SOLVER PACKAGE  IN FLOW TIME STEP      36 STRESS PERIOD       2

 TOTAL OF       2OUTER ITERATIONS
  MAXIMUM CHANGE FOR EACH ITERATION:
   MAX. CHANGE        NODE  MAX. CHANGE        NODE  MAX. CHANGE        NODE  MAX. CHANGE        NODE  MAX. CHANGE        NODE
 ------------------------------------------------------------------------------------------------------------------------------------
   0.26519E-03,       1150  0.37423E-05,         25

 NO OUTPUT CONTROL FOR STRESS PERIOD        2   TIME STEP       36



          TIME SUMMARY AT END OF TIME STEP        36 IN STRESS PERIOD         2
                    SECONDS     MINUTES      HOURS       DAYS        YEARS
                    -----------------------------------------------------------
   TIME STEP LENGTH  86.400      1.4400     2.40000E-02 1.00000E-03 2.73785E-06
 STRESS PERIOD TIME  3110.4      51.840     0.86400     3.60000E-02 9.85626E-05
         TOTAL TIME  89510.      1491.8      24.864      1.0360     2.83641E-03
1
 ------------------------------------------------------------------------------------------------------------
 
 SOLVING FOR TRANSPORT 

          SEQUENTIAL TRANSPORT ITERATION LOOP NUMBER    1
          -----------------------------------------------

 ------------------------------------------------------------------------------------------------------------------------
     1 CALLS TO SPARSE MATRIX SOLVER PACKAGE IN TRANSPORT TIME STEP      36 STRESS PERIOD       2 SPECIES  1

 TOTAL OF       1OUTER ITERATIONS
  MAXIMUM CHANGE FOR EACH ITERATION:
   MAX. CHANGE        NODE  MAX. CHANGE        NODE  MAX. CHANGE        NODE  MAX. CHANGE        NODE  MAX. CHANGE        NODE
 ------------------------------------------------------------------------------------------------------------------------------------
   -1.4307    ,         48
     TRANSPORT SOLUTION COMPLETE FOR COMPONENT SPECIES NUMBER    1
     ------------------------------------------------------------

 TRANSPORT SOLUTION COMPLETE FOR ALL SPECIES, SORTING OUTPUT FOR CONCENTRATIONS AND MASS BALANCE
 ----------------------------------------------------------------------------------------------------
     TRANSPORT OUTPUT FOR COMPONENT SPECIES NUMBER    1
     ------------------------------------------------------------
 -------------------------------------------------------------------------------------
 
 SOLVING FOR HEAD 

 Outer-Iteration  Inner-Iteration  Backtracking  Number of        Incoming       Outgoing      Cutoff     Maximum Head Change      Maximum Head Change
     Number           Count           Flag       Backtracks       Residual       Residual      Residual            Value               Location
        1                             0             0          0.229508E-01     0.229508E-01   -1.00000    
        1               15                                                                                       0.258367E-03               1151           GWF-node number
        2                             0             0          0.145996E-05     0.145996E-05   -1.00000    
        2                4                                                                                       0.360641E-05                110           GWF-node number
     2 CALLS TO SPARSE MATRIX SOLVER PACKAGE  IN FLOW TIME STEP      37 STRESS PERIOD       2

 TOTAL OF       2OUTER ITERATIONS
  MAXIMUM CHANGE FOR EACH ITERATION:
   MAX. CHANGE        NODE  MAX. CHANGE        NODE  MAX. CHANGE        NODE  MAX. CHANGE        NODE  MAX. CHANGE        NODE
 ------------------------------------------------------------------------------------------------------------------------------------
   0.25837E-03,       1151  0.36064E-05,        110

 NO OUTPUT CONTROL FOR STRESS PERIOD        2   TIME STEP       37



          TIME SUMMARY AT END OF TIME STEP        37 IN STRESS PERIOD         2
                    SECONDS     MINUTES      HOURS       DAYS        YEARS
                    -----------------------------------------------------------
   TIME STEP LENGTH  86.400      1.4400     2.40000E-02 1.00000E-03 2.73785E-06
 STRESS PERIOD TIME  3196.8      53.280     0.88800     3.70000E-02 1.01300E-04
         TOTAL TIME  89597.      1493.3      24.888      1.0370     2.83915E-03
1
 ------------------------------------------------------------------------------------------------------------
 
 SOLVING FOR TRANSPORT 

          SEQUENTIAL TRANSPORT ITERATION LOOP NUMBER    1
          -----------------------------------------------

 ------------------------------------------------------------------------------------------------------------------------
     1 CALLS TO SPARSE MATRIX SOLVER PACKAGE IN TRANSPORT TIME STEP      37 STRESS PERIOD       2 SPECIES  1

 TOTAL OF       1OUTER ITERATIONS
  MAXIMUM CHANGE FOR EACH ITERATION:
   MAX. CHANGE        NODE  MAX. CHANGE        NODE  MAX. CHANGE        NODE  MAX. CHANGE        NODE  MAX. CHANGE        NODE
 ------------------------------------------------------------------------------------------------------------------------------------
   -1.4107    ,         49
     TRANSPORT SOLUTION COMPLETE FOR COMPONENT SPECIES NUMBER    1
     ------------------------------------------------------------

 TRANSPORT SOLUTION COMPLETE FOR ALL SPECIES, SORTING OUTPUT FOR CONCENTRATIONS AND MASS BALANCE
 ----------------------------------------------------------------------------------------------------
     TRANSPORT OUTPUT FOR COMPONENT SPECIES NUMBER    1
     ------------------------------------------------------------
 -------------------------------------------------------------------------------------
 
 SOLVING FOR HEAD 

 Outer-Iteration  Inner-Iteration  Backtracking  Number of        Incoming       Outgoing      Cutoff     Maximum Head Change      Maximum Head Change
     Number           Count           Flag       Backtracks       Residual       Residual      Residual            Value               Location
        1                             0             0          0.224960E-01     0.224960E-01   -1.00000    
        1               15                                                                                       0.252730E-03               1073           GWF-node number
        2                             0             0          0.890826E-06     0.890826E-06   -1.00000    
        2                4                                                                                       0.449100E-05                105           GWF-node number
     2 CALLS TO SPARSE MATRIX SOLVER PACKAGE  IN FLOW TIME STEP      38 STRESS PERIOD       2

 TOTAL OF       2OUTER ITERATIONS
  MAXIMUM CHANGE FOR EACH ITERATION:
   MAX. CHANGE        NODE  MAX. CHANGE        NODE  MAX. CHANGE        NODE  MAX. CHANGE        NODE  MAX. CHANGE        NODE
 ------------------------------------------------------------------------------------------------------------------------------------
   0.25273E-03,       1073  0.44910E-05,        105

 NO OUTPUT CONTROL FOR STRESS PERIOD        2   TIME STEP       38



          TIME SUMMARY AT END OF TIME STEP        38 IN STRESS PERIOD         2
                    SECONDS     MINUTES      HOURS       DAYS        YEARS
                    -----------------------------------------------------------
   TIME STEP LENGTH  86.400      1.4400     2.40000E-02 1.00000E-03 2.73785E-06
 STRESS PERIOD TIME  3283.2      54.720     0.91200     3.80000E-02 1.04038E-04
         TOTAL TIME  89683.      1494.7      24.912      1.0380     2.84189E-03
1
 ------------------------------------------------------------------------------------------------------------
 
 SOLVING FOR TRANSPORT 

          SEQUENTIAL TRANSPORT ITERATION LOOP NUMBER    1
          -----------------------------------------------

 ------------------------------------------------------------------------------------------------------------------------
     1 CALLS TO SPARSE MATRIX SOLVER PACKAGE IN TRANSPORT TIME STEP      38 STRESS PERIOD       2 SPECIES  1

 TOTAL OF       1OUTER ITERATIONS
  MAXIMUM CHANGE FOR EACH ITERATION:
   MAX. CHANGE        NODE  MAX. CHANGE        NODE  MAX. CHANGE        NODE  MAX. CHANGE        NODE  MAX. CHANGE        NODE
 ------------------------------------------------------------------------------------------------------------------------------------
   -1.3847    ,         50
     TRANSPORT SOLUTION COMPLETE FOR COMPONENT SPECIES NUMBER    1
     ------------------------------------------------------------

 TRANSPORT SOLUTION COMPLETE FOR ALL SPECIES, SORTING OUTPUT FOR CONCENTRATIONS AND MASS BALANCE
 ----------------------------------------------------------------------------------------------------
     TRANSPORT OUTPUT FOR COMPONENT SPECIES NUMBER    1
     ------------------------------------------------------------
 -------------------------------------------------------------------------------------
 
 SOLVING FOR HEAD 

 Outer-Iteration  Inner-Iteration  Backtracking  Number of        Incoming       Outgoing      Cutoff     Maximum Head Change      Maximum Head Change
     Number           Count           Flag       Backtracks       Residual       Residual      Residual            Value               Location
        1                             0             0          0.220514E-01     0.220514E-01   -1.00000    
        1               14                                                                                       0.246642E-03               1153           GWF-node number
        2                             0             0          0.186092E-05     0.186092E-05   -1.00000    
        2                3                                                                                       0.488376E-05                192           GWF-node number
     2 CALLS TO SPARSE MATRIX SOLVER PACKAGE  IN FLOW TIME STEP      39 STRESS PERIOD       2

 TOTAL OF       2OUTER ITERATIONS
  MAXIMUM CHANGE FOR EACH ITERATION:
   MAX. CHANGE        NODE  MAX. CHANGE        NODE  MAX. CHANGE        NODE  MAX. CHANGE        NODE  MAX. CHANGE        NODE
 ------------------------------------------------------------------------------------------------------------------------------------
   0.24664E-03,       1153  0.48838E-05,        192

 NO OUTPUT CONTROL FOR STRESS PERIOD        2   TIME STEP       39



          TIME SUMMARY AT END OF TIME STEP        39 IN STRESS PERIOD         2
                    SECONDS     MINUTES      HOURS       DAYS        YEARS
                    -----------------------------------------------------------
   TIME STEP LENGTH  86.400      1.4400     2.40000E-02 1.00000E-03 2.73785E-06
 STRESS PERIOD TIME  3369.6      56.160     0.93600     3.90000E-02 1.06776E-04
         TOTAL TIME  89770.      1496.2      24.936      1.0390     2.84463E-03
1
 ------------------------------------------------------------------------------------------------------------
 
 SOLVING FOR TRANSPORT 

          SEQUENTIAL TRANSPORT ITERATION LOOP NUMBER    1
          -----------------------------------------------

 ------------------------------------------------------------------------------------------------------------------------
     1 CALLS TO SPARSE MATRIX SOLVER PACKAGE IN TRANSPORT TIME STEP      39 STRESS PERIOD       2 SPECIES  1

 TOTAL OF       1OUTER ITERATIONS
  MAXIMUM CHANGE FOR EACH ITERATION:
   MAX. CHANGE        NODE  MAX. CHANGE        NODE  MAX. CHANGE        NODE  MAX. CHANGE        NODE  MAX. CHANGE        NODE
 ------------------------------------------------------------------------------------------------------------------------------------
   -1.3583    ,         51
     TRANSPORT SOLUTION COMPLETE FOR COMPONENT SPECIES NUMBER    1
     ------------------------------------------------------------

 TRANSPORT SOLUTION COMPLETE FOR ALL SPECIES, SORTING OUTPUT FOR CONCENTRATIONS AND MASS BALANCE
 ----------------------------------------------------------------------------------------------------
     TRANSPORT OUTPUT FOR COMPONENT SPECIES NUMBER    1
     ------------------------------------------------------------
 -------------------------------------------------------------------------------------
 
 SOLVING FOR HEAD 

 Outer-Iteration  Inner-Iteration  Backtracking  Number of        Incoming       Outgoing      Cutoff     Maximum Head Change      Maximum Head Change
     Number           Count           Flag       Backtracks       Residual       Residual      Residual            Value               Location
        1                             0             0          0.216636E-01     0.216636E-01   -1.00000    
        1               15                                                                                       0.240613E-03               1075           GWF-node number
        2                             0             0          0.135035E-05     0.135035E-05   -1.00000    
        2                5                                                                                       0.468191E-05                648           GWF-node number
     2 CALLS TO SPARSE MATRIX SOLVER PACKAGE  IN FLOW TIME STEP      40 STRESS PERIOD       2

 TOTAL OF       2OUTER ITERATIONS
  MAXIMUM CHANGE FOR EACH ITERATION:
   MAX. CHANGE        NODE  MAX. CHANGE        NODE  MAX. CHANGE        NODE  MAX. CHANGE        NODE  MAX. CHANGE        NODE
 ------------------------------------------------------------------------------------------------------------------------------------
   0.24061E-03,       1075  0.46819E-05,        648

 NO OUTPUT CONTROL FOR STRESS PERIOD        2   TIME STEP       40



          TIME SUMMARY AT END OF TIME STEP        40 IN STRESS PERIOD         2
                    SECONDS     MINUTES      HOURS       DAYS        YEARS
                    -----------------------------------------------------------
   TIME STEP LENGTH  86.400      1.4400     2.40000E-02 1.00000E-03 2.73785E-06
 STRESS PERIOD TIME  3456.0      57.600     0.96000     4.00000E-02 1.09514E-04
         TOTAL TIME  89856.      1497.6      24.960      1.0400     2.84736E-03
1
 ------------------------------------------------------------------------------------------------------------
 
 SOLVING FOR TRANSPORT 

          SEQUENTIAL TRANSPORT ITERATION LOOP NUMBER    1
          -----------------------------------------------

 ------------------------------------------------------------------------------------------------------------------------
     1 CALLS TO SPARSE MATRIX SOLVER PACKAGE IN TRANSPORT TIME STEP      40 STRESS PERIOD       2 SPECIES  1

 TOTAL OF       1OUTER ITERATIONS
  MAXIMUM CHANGE FOR EACH ITERATION:
   MAX. CHANGE        NODE  MAX. CHANGE        NODE  MAX. CHANGE        NODE  MAX. CHANGE        NODE  MAX. CHANGE        NODE
 ------------------------------------------------------------------------------------------------------------------------------------
   -1.3422    ,         53
     TRANSPORT SOLUTION COMPLETE FOR COMPONENT SPECIES NUMBER    1
     ------------------------------------------------------------

 TRANSPORT SOLUTION COMPLETE FOR ALL SPECIES, SORTING OUTPUT FOR CONCENTRATIONS AND MASS BALANCE
 ----------------------------------------------------------------------------------------------------
     TRANSPORT OUTPUT FOR COMPONENT SPECIES NUMBER    1
     ------------------------------------------------------------
 -------------------------------------------------------------------------------------
 
 SOLVING FOR HEAD 

 Outer-Iteration  Inner-Iteration  Backtracking  Number of        Incoming       Outgoing      Cutoff     Maximum Head Change      Maximum Head Change
     Number           Count           Flag       Backtracks       Residual       Residual      Residual            Value               Location
        1                             0             0          0.211920E-01     0.211920E-01   -1.00000    
        1               13                                                                                       0.235962E-03               1076           GWF-node number
        2                             0             0          0.152575E-05     0.152575E-05   -1.00000    
        2                6                                                                                       0.416806E-05                193           GWF-node number
     2 CALLS TO SPARSE MATRIX SOLVER PACKAGE  IN FLOW TIME STEP      41 STRESS PERIOD       2

 TOTAL OF       2OUTER ITERATIONS
  MAXIMUM CHANGE FOR EACH ITERATION:
   MAX. CHANGE        NODE  MAX. CHANGE        NODE  MAX. CHANGE        NODE  MAX. CHANGE        NODE  MAX. CHANGE        NODE
 ------------------------------------------------------------------------------------------------------------------------------------
   0.23596E-03,       1076  0.41681E-05,        193

 NO OUTPUT CONTROL FOR STRESS PERIOD        2   TIME STEP       41



          TIME SUMMARY AT END OF TIME STEP        41 IN STRESS PERIOD         2
                    SECONDS     MINUTES      HOURS       DAYS        YEARS
                    -----------------------------------------------------------
   TIME STEP LENGTH  86.400      1.4400     2.40000E-02 1.00000E-03 2.73785E-06
 STRESS PERIOD TIME  3542.4      59.040     0.98400     4.10000E-02 1.12252E-04
         TOTAL TIME  89942.      1499.0      24.984      1.0410     2.85010E-03
1
 ------------------------------------------------------------------------------------------------------------
 
 SOLVING FOR TRANSPORT 

          SEQUENTIAL TRANSPORT ITERATION LOOP NUMBER    1
          -----------------------------------------------

 ------------------------------------------------------------------------------------------------------------------------
     1 CALLS TO SPARSE MATRIX SOLVER PACKAGE IN TRANSPORT TIME STEP      41 STRESS PERIOD       2 SPECIES  1

 TOTAL OF       1OUTER ITERATIONS
  MAXIMUM CHANGE FOR EACH ITERATION:
   MAX. CHANGE        NODE  MAX. CHANGE        NODE  MAX. CHANGE        NODE  MAX. CHANGE        NODE  MAX. CHANGE        NODE
 ------------------------------------------------------------------------------------------------------------------------------------
   -1.3222    ,         54
     TRANSPORT SOLUTION COMPLETE FOR COMPONENT SPECIES NUMBER    1
     ------------------------------------------------------------

 TRANSPORT SOLUTION COMPLETE FOR ALL SPECIES, SORTING OUTPUT FOR CONCENTRATIONS AND MASS BALANCE
 ----------------------------------------------------------------------------------------------------
     TRANSPORT OUTPUT FOR COMPONENT SPECIES NUMBER    1
     ------------------------------------------------------------
 -------------------------------------------------------------------------------------
 
 SOLVING FOR HEAD 

 Outer-Iteration  Inner-Iteration  Backtracking  Number of        Incoming       Outgoing      Cutoff     Maximum Head Change      Maximum Head Change
     Number           Count           Flag       Backtracks       Residual       Residual      Residual            Value               Location
        1                             0             0          0.209572E-01     0.209572E-01   -1.00000    
        1               14                                                                                       0.231143E-03               1077           GWF-node number
        2                             0             0          0.109631E-05     0.109631E-05   -1.00000    
        2                3                                                                                       0.418758E-05                114           GWF-node number
     2 CALLS TO SPARSE MATRIX SOLVER PACKAGE  IN FLOW TIME STEP      42 STRESS PERIOD       2

 TOTAL OF       2OUTER ITERATIONS
  MAXIMUM CHANGE FOR EACH ITERATION:
   MAX. CHANGE        NODE  MAX. CHANGE        NODE  MAX. CHANGE        NODE  MAX. CHANGE        NODE  MAX. CHANGE        NODE
 ------------------------------------------------------------------------------------------------------------------------------------
   0.23114E-03,       1077  0.41876E-05,        114

 NO OUTPUT CONTROL FOR STRESS PERIOD        2   TIME STEP       42



          TIME SUMMARY AT END OF TIME STEP        42 IN STRESS PERIOD         2
                    SECONDS     MINUTES      HOURS       DAYS        YEARS
                    -----------------------------------------------------------
   TIME STEP LENGTH  86.400      1.4400     2.40000E-02 1.00000E-03 2.73785E-06
 STRESS PERIOD TIME  3628.8      60.480      1.0080     4.20000E-02 1.14990E-04
         TOTAL TIME  90029.      1500.5      25.008      1.0420     2.85284E-03
1
 ------------------------------------------------------------------------------------------------------------
 
 SOLVING FOR TRANSPORT 

          SEQUENTIAL TRANSPORT ITERATION LOOP NUMBER    1
          -----------------------------------------------

 ------------------------------------------------------------------------------------------------------------------------
     1 CALLS TO SPARSE MATRIX SOLVER PACKAGE IN TRANSPORT TIME STEP      42 STRESS PERIOD       2 SPECIES  1

 TOTAL OF       1OUTER ITERATIONS
  MAXIMUM CHANGE FOR EACH ITERATION:
   MAX. CHANGE        NODE  MAX. CHANGE        NODE  MAX. CHANGE        NODE  MAX. CHANGE        NODE  MAX. CHANGE        NODE
 ------------------------------------------------------------------------------------------------------------------------------------
   -1.2983    ,         55
     TRANSPORT SOLUTION COMPLETE FOR COMPONENT SPECIES NUMBER    1
     ------------------------------------------------------------

 TRANSPORT SOLUTION COMPLETE FOR ALL SPECIES, SORTING OUTPUT FOR CONCENTRATIONS AND MASS BALANCE
 ----------------------------------------------------------------------------------------------------
     TRANSPORT OUTPUT FOR COMPONENT SPECIES NUMBER    1
     ------------------------------------------------------------
 -------------------------------------------------------------------------------------
 
 SOLVING FOR HEAD 

 Outer-Iteration  Inner-Iteration  Backtracking  Number of        Incoming       Outgoing      Cutoff     Maximum Head Change      Maximum Head Change
     Number           Count           Flag       Backtracks       Residual       Residual      Residual            Value               Location
        1                             0             0          0.205704E-01     0.205704E-01   -1.00000    
        1               12                                                                                       0.225679E-03               1078           GWF-node number
        2                             0             0          0.312607E-05     0.312607E-05   -1.00000    
        2                5                                                                                       0.437019E-05                196           GWF-node number
     2 CALLS TO SPARSE MATRIX SOLVER PACKAGE  IN FLOW TIME STEP      43 STRESS PERIOD       2

 TOTAL OF       2OUTER ITERATIONS
  MAXIMUM CHANGE FOR EACH ITERATION:
   MAX. CHANGE        NODE  MAX. CHANGE        NODE  MAX. CHANGE        NODE  MAX. CHANGE        NODE  MAX. CHANGE        NODE
 ------------------------------------------------------------------------------------------------------------------------------------
   0.22568E-03,       1078  0.43702E-05,        196

 NO OUTPUT CONTROL FOR STRESS PERIOD        2   TIME STEP       43



          TIME SUMMARY AT END OF TIME STEP        43 IN STRESS PERIOD         2
                    SECONDS     MINUTES      HOURS       DAYS        YEARS
                    -----------------------------------------------------------
   TIME STEP LENGTH  86.400      1.4400     2.40000E-02 1.00000E-03 2.73785E-06
 STRESS PERIOD TIME  3715.2      61.920      1.0320     4.30000E-02 1.17728E-04
         TOTAL TIME  90115.      1501.9      25.032      1.0430     2.85558E-03
1
 ------------------------------------------------------------------------------------------------------------
 
 SOLVING FOR TRANSPORT 

          SEQUENTIAL TRANSPORT ITERATION LOOP NUMBER    1
          -----------------------------------------------

 ------------------------------------------------------------------------------------------------------------------------
     1 CALLS TO SPARSE MATRIX SOLVER PACKAGE IN TRANSPORT TIME STEP      43 STRESS PERIOD       2 SPECIES  1

 TOTAL OF       1OUTER ITERATIONS
  MAXIMUM CHANGE FOR EACH ITERATION:
   MAX. CHANGE        NODE  MAX. CHANGE        NODE  MAX. CHANGE        NODE  MAX. CHANGE        NODE  MAX. CHANGE        NODE
 ------------------------------------------------------------------------------------------------------------------------------------
   -1.2807    ,         56
     TRANSPORT SOLUTION COMPLETE FOR COMPONENT SPECIES NUMBER    1
     ------------------------------------------------------------

 TRANSPORT SOLUTION COMPLETE FOR ALL SPECIES, SORTING OUTPUT FOR CONCENTRATIONS AND MASS BALANCE
 ----------------------------------------------------------------------------------------------------
     TRANSPORT OUTPUT FOR COMPONENT SPECIES NUMBER    1
     ------------------------------------------------------------
 -------------------------------------------------------------------------------------
 
 SOLVING FOR HEAD 

 Outer-Iteration  Inner-Iteration  Backtracking  Number of        Incoming       Outgoing      Cutoff     Maximum Head Change      Maximum Head Change
     Number           Count           Flag       Backtracks       Residual       Residual      Residual            Value               Location
        1                             0             0          0.198553E-01     0.198553E-01   -1.00000    
        1               13                                                                                       0.221573E-03                922           GWF-node number
        2                             0             0          0.166353E-05     0.166353E-05   -1.00000    
        2                5                                                                                       0.404362E-05                196           GWF-node number
     2 CALLS TO SPARSE MATRIX SOLVER PACKAGE  IN FLOW TIME STEP      44 STRESS PERIOD       2

 TOTAL OF       2OUTER ITERATIONS
  MAXIMUM CHANGE FOR EACH ITERATION:
   MAX. CHANGE        NODE  MAX. CHANGE        NODE  MAX. CHANGE        NODE  MAX. CHANGE        NODE  MAX. CHANGE        NODE
 ------------------------------------------------------------------------------------------------------------------------------------
   0.22157E-03,        922  0.40436E-05,        196

 NO OUTPUT CONTROL FOR STRESS PERIOD        2   TIME STEP       44



          TIME SUMMARY AT END OF TIME STEP        44 IN STRESS PERIOD         2
                    SECONDS     MINUTES      HOURS       DAYS        YEARS
                    -----------------------------------------------------------
   TIME STEP LENGTH  86.400      1.4400     2.40000E-02 1.00000E-03 2.73785E-06
 STRESS PERIOD TIME  3801.6      63.360      1.0560     4.40000E-02 1.20465E-04
         TOTAL TIME  90202.      1503.4      25.056      1.0440     2.85832E-03
1
 ------------------------------------------------------------------------------------------------------------
 
 SOLVING FOR TRANSPORT 

          SEQUENTIAL TRANSPORT ITERATION LOOP NUMBER    1
          -----------------------------------------------

 ------------------------------------------------------------------------------------------------------------------------
     1 CALLS TO SPARSE MATRIX SOLVER PACKAGE IN TRANSPORT TIME STEP      44 STRESS PERIOD       2 SPECIES  1

 TOTAL OF       1OUTER ITERATIONS
  MAXIMUM CHANGE FOR EACH ITERATION:
   MAX. CHANGE        NODE  MAX. CHANGE        NODE  MAX. CHANGE        NODE  MAX. CHANGE        NODE  MAX. CHANGE        NODE
 ------------------------------------------------------------------------------------------------------------------------------------
   -1.2606    ,         57
     TRANSPORT SOLUTION COMPLETE FOR COMPONENT SPECIES NUMBER    1
     ------------------------------------------------------------

 TRANSPORT SOLUTION COMPLETE FOR ALL SPECIES, SORTING OUTPUT FOR CONCENTRATIONS AND MASS BALANCE
 ----------------------------------------------------------------------------------------------------
     TRANSPORT OUTPUT FOR COMPONENT SPECIES NUMBER    1
     ------------------------------------------------------------
 -------------------------------------------------------------------------------------
 
 SOLVING FOR HEAD 

 Outer-Iteration  Inner-Iteration  Backtracking  Number of        Incoming       Outgoing      Cutoff     Maximum Head Change      Maximum Head Change
     Number           Count           Flag       Backtracks       Residual       Residual      Residual            Value               Location
        1                             0             0          0.193575E-01     0.193575E-01   -1.00000    
        1               12                                                                                       0.216385E-03                923           GWF-node number
        2                             0             0          0.640828E-05     0.640828E-05   -1.00000    
        2                5                                                                                       0.433551E-05                511           GWF-node number
     2 CALLS TO SPARSE MATRIX SOLVER PACKAGE  IN FLOW TIME STEP      45 STRESS PERIOD       2

 TOTAL OF       2OUTER ITERATIONS
  MAXIMUM CHANGE FOR EACH ITERATION:
   MAX. CHANGE        NODE  MAX. CHANGE        NODE  MAX. CHANGE        NODE  MAX. CHANGE        NODE  MAX. CHANGE        NODE
 ------------------------------------------------------------------------------------------------------------------------------------
   0.21639E-03,        923  0.43355E-05,        511

 NO OUTPUT CONTROL FOR STRESS PERIOD        2   TIME STEP       45



          TIME SUMMARY AT END OF TIME STEP        45 IN STRESS PERIOD         2
                    SECONDS     MINUTES      HOURS       DAYS        YEARS
                    -----------------------------------------------------------
   TIME STEP LENGTH  86.400      1.4400     2.40000E-02 1.00000E-03 2.73785E-06
 STRESS PERIOD TIME  3888.0      64.800      1.0800     4.50000E-02 1.23203E-04
         TOTAL TIME  90288.      1504.8      25.080      1.0450     2.86105E-03
1
 ------------------------------------------------------------------------------------------------------------
 
 SOLVING FOR TRANSPORT 

          SEQUENTIAL TRANSPORT ITERATION LOOP NUMBER    1
          -----------------------------------------------

 ------------------------------------------------------------------------------------------------------------------------
     1 CALLS TO SPARSE MATRIX SOLVER PACKAGE IN TRANSPORT TIME STEP      45 STRESS PERIOD       2 SPECIES  1

 TOTAL OF       1OUTER ITERATIONS
  MAXIMUM CHANGE FOR EACH ITERATION:
   MAX. CHANGE        NODE  MAX. CHANGE        NODE  MAX. CHANGE        NODE  MAX. CHANGE        NODE  MAX. CHANGE        NODE
 ------------------------------------------------------------------------------------------------------------------------------------
   -1.2431    ,         59
     TRANSPORT SOLUTION COMPLETE FOR COMPONENT SPECIES NUMBER    1
     ------------------------------------------------------------

 TRANSPORT SOLUTION COMPLETE FOR ALL SPECIES, SORTING OUTPUT FOR CONCENTRATIONS AND MASS BALANCE
 ----------------------------------------------------------------------------------------------------
     TRANSPORT OUTPUT FOR COMPONENT SPECIES NUMBER    1
     ------------------------------------------------------------
 -------------------------------------------------------------------------------------
 
 SOLVING FOR HEAD 

 Outer-Iteration  Inner-Iteration  Backtracking  Number of        Incoming       Outgoing      Cutoff     Maximum Head Change      Maximum Head Change
     Number           Count           Flag       Backtracks       Residual       Residual      Residual            Value               Location
        1                             0             0          0.189217E-01     0.189217E-01   -1.00000    
        1               13                                                                                       0.212131E-03                767           GWF-node number
        2                             0             0          0.338178E-05     0.338178E-05   -1.00000    
        2                6                                                                                       0.388536E-05                 43           GWF-node number
     2 CALLS TO SPARSE MATRIX SOLVER PACKAGE  IN FLOW TIME STEP      46 STRESS PERIOD       2

 TOTAL OF       2OUTER ITERATIONS
  MAXIMUM CHANGE FOR EACH ITERATION:
   MAX. CHANGE        NODE  MAX. CHANGE        NODE  MAX. CHANGE        NODE  MAX. CHANGE        NODE  MAX. CHANGE        NODE
 ------------------------------------------------------------------------------------------------------------------------------------
   0.21213E-03,        767  0.38854E-05,         43

 NO OUTPUT CONTROL FOR STRESS PERIOD        2   TIME STEP       46



          TIME SUMMARY AT END OF TIME STEP        46 IN STRESS PERIOD         2
                    SECONDS     MINUTES      HOURS       DAYS        YEARS
                    -----------------------------------------------------------
   TIME STEP LENGTH  86.400      1.4400     2.40000E-02 1.00000E-03 2.73785E-06
 STRESS PERIOD TIME  3974.4      66.240      1.1040     4.60000E-02 1.25941E-04
         TOTAL TIME  90374.      1506.2      25.104      1.0460     2.86379E-03
1
 ------------------------------------------------------------------------------------------------------------
 
 SOLVING FOR TRANSPORT 

          SEQUENTIAL TRANSPORT ITERATION LOOP NUMBER    1
          -----------------------------------------------

 ------------------------------------------------------------------------------------------------------------------------
     1 CALLS TO SPARSE MATRIX SOLVER PACKAGE IN TRANSPORT TIME STEP      46 STRESS PERIOD       2 SPECIES  1

 TOTAL OF       1OUTER ITERATIONS
  MAXIMUM CHANGE FOR EACH ITERATION:
   MAX. CHANGE        NODE  MAX. CHANGE        NODE  MAX. CHANGE        NODE  MAX. CHANGE        NODE  MAX. CHANGE        NODE
 ------------------------------------------------------------------------------------------------------------------------------------
   -1.2247    ,         60
     TRANSPORT SOLUTION COMPLETE FOR COMPONENT SPECIES NUMBER    1
     ------------------------------------------------------------

 TRANSPORT SOLUTION COMPLETE FOR ALL SPECIES, SORTING OUTPUT FOR CONCENTRATIONS AND MASS BALANCE
 ----------------------------------------------------------------------------------------------------
     TRANSPORT OUTPUT FOR COMPONENT SPECIES NUMBER    1
     ------------------------------------------------------------
 -------------------------------------------------------------------------------------
 
 SOLVING FOR HEAD 

 Outer-Iteration  Inner-Iteration  Backtracking  Number of        Incoming       Outgoing      Cutoff     Maximum Head Change      Maximum Head Change
     Number           Count           Flag       Backtracks       Residual       Residual      Residual            Value               Location
        1                             0             0          0.184344E-01     0.184344E-01   -1.00000    
        1               13                                                                                       0.207391E-03                768           GWF-node number
        2                             0             0          0.331803E-05     0.331803E-05   -1.00000    
        2                4                                                                                       0.376246E-05                 45           GWF-node number
     2 CALLS TO SPARSE MATRIX SOLVER PACKAGE  IN FLOW TIME STEP      47 STRESS PERIOD       2

 TOTAL OF       2OUTER ITERATIONS
  MAXIMUM CHANGE FOR EACH ITERATION:
   MAX. CHANGE        NODE  MAX. CHANGE        NODE  MAX. CHANGE        NODE  MAX. CHANGE        NODE  MAX. CHANGE        NODE
 ------------------------------------------------------------------------------------------------------------------------------------
   0.20739E-03,        768  0.37625E-05,         45

 NO OUTPUT CONTROL FOR STRESS PERIOD        2   TIME STEP       47



          TIME SUMMARY AT END OF TIME STEP        47 IN STRESS PERIOD         2
                    SECONDS     MINUTES      HOURS       DAYS        YEARS
                    -----------------------------------------------------------
   TIME STEP LENGTH  86.400      1.4400     2.40000E-02 1.00000E-03 2.73785E-06
 STRESS PERIOD TIME  4060.8      67.680      1.1280     4.70000E-02 1.28679E-04
         TOTAL TIME  90461.      1507.7      25.128      1.0470     2.86653E-03
1
 ------------------------------------------------------------------------------------------------------------
 
 SOLVING FOR TRANSPORT 

          SEQUENTIAL TRANSPORT ITERATION LOOP NUMBER    1
          -----------------------------------------------

 ------------------------------------------------------------------------------------------------------------------------
     1 CALLS TO SPARSE MATRIX SOLVER PACKAGE IN TRANSPORT TIME STEP      47 STRESS PERIOD       2 SPECIES  1

 TOTAL OF       1OUTER ITERATIONS
  MAXIMUM CHANGE FOR EACH ITERATION:
   MAX. CHANGE        NODE  MAX. CHANGE        NODE  MAX. CHANGE        NODE  MAX. CHANGE        NODE  MAX. CHANGE        NODE
 ------------------------------------------------------------------------------------------------------------------------------------
   -1.2068    ,         61
     TRANSPORT SOLUTION COMPLETE FOR COMPONENT SPECIES NUMBER    1
     ------------------------------------------------------------

 TRANSPORT SOLUTION COMPLETE FOR ALL SPECIES, SORTING OUTPUT FOR CONCENTRATIONS AND MASS BALANCE
 ----------------------------------------------------------------------------------------------------
     TRANSPORT OUTPUT FOR COMPONENT SPECIES NUMBER    1
     ------------------------------------------------------------
 -------------------------------------------------------------------------------------
 
 SOLVING FOR HEAD 

 Outer-Iteration  Inner-Iteration  Backtracking  Number of        Incoming       Outgoing      Cutoff     Maximum Head Change      Maximum Head Change
     Number           Count           Flag       Backtracks       Residual       Residual      Residual            Value               Location
        1                             0             0          0.178125E-01     0.178125E-01   -1.00000    
        1               13                                                                                       0.202225E-03                769           GWF-node number
        2                             0             0          0.289583E-05     0.289583E-05   -1.00000    
        2                9                                                                                       0.412682E-05                121           GWF-node number
     2 CALLS TO SPARSE MATRIX SOLVER PACKAGE  IN FLOW TIME STEP      48 STRESS PERIOD       2

 TOTAL OF       2OUTER ITERATIONS
  MAXIMUM CHANGE FOR EACH ITERATION:
   MAX. CHANGE        NODE  MAX. CHANGE        NODE  MAX. CHANGE        NODE  MAX. CHANGE        NODE  MAX. CHANGE        NODE
 ------------------------------------------------------------------------------------------------------------------------------------
   0.20222E-03,        769  0.41268E-05,        121

 NO OUTPUT CONTROL FOR STRESS PERIOD        2   TIME STEP       48



          TIME SUMMARY AT END OF TIME STEP        48 IN STRESS PERIOD         2
                    SECONDS     MINUTES      HOURS       DAYS        YEARS
                    -----------------------------------------------------------
   TIME STEP LENGTH  86.400      1.4400     2.40000E-02 1.00000E-03 2.73785E-06
 STRESS PERIOD TIME  4147.2      69.120      1.1520     4.80000E-02 1.31417E-04
         TOTAL TIME  90547.      1509.1      25.152      1.0480     2.86927E-03
1
 ------------------------------------------------------------------------------------------------------------
 
 SOLVING FOR TRANSPORT 

          SEQUENTIAL TRANSPORT ITERATION LOOP NUMBER    1
          -----------------------------------------------

 ------------------------------------------------------------------------------------------------------------------------
     1 CALLS TO SPARSE MATRIX SOLVER PACKAGE IN TRANSPORT TIME STEP      48 STRESS PERIOD       2 SPECIES  1

 TOTAL OF       1OUTER ITERATIONS
  MAXIMUM CHANGE FOR EACH ITERATION:
   MAX. CHANGE        NODE  MAX. CHANGE        NODE  MAX. CHANGE        NODE  MAX. CHANGE        NODE  MAX. CHANGE        NODE
 ------------------------------------------------------------------------------------------------------------------------------------
   -1.1943    ,         62
     TRANSPORT SOLUTION COMPLETE FOR COMPONENT SPECIES NUMBER    1
     ------------------------------------------------------------

 TRANSPORT SOLUTION COMPLETE FOR ALL SPECIES, SORTING OUTPUT FOR CONCENTRATIONS AND MASS BALANCE
 ----------------------------------------------------------------------------------------------------
     TRANSPORT OUTPUT FOR COMPONENT SPECIES NUMBER    1
     ------------------------------------------------------------
 -------------------------------------------------------------------------------------
 
 SOLVING FOR HEAD 

 Outer-Iteration  Inner-Iteration  Backtracking  Number of        Incoming       Outgoing      Cutoff     Maximum Head Change      Maximum Head Change
     Number           Count           Flag       Backtracks       Residual       Residual      Residual            Value               Location
        1                             0             0          0.174699E-01     0.174699E-01   -1.00000    
        1               12                                                                                       0.198239E-03               3127           GWF-node number
        2                             0             0          0.522711E-05     0.522711E-05   -1.00000    
        2                3                                                                                       0.410209E-05                280           GWF-node number
     2 CALLS TO SPARSE MATRIX SOLVER PACKAGE  IN FLOW TIME STEP      49 STRESS PERIOD       2

 TOTAL OF       2OUTER ITERATIONS
  MAXIMUM CHANGE FOR EACH ITERATION:
   MAX. CHANGE        NODE  MAX. CHANGE        NODE  MAX. CHANGE        NODE  MAX. CHANGE        NODE  MAX. CHANGE        NODE
 ------------------------------------------------------------------------------------------------------------------------------------
   0.19824E-03,       3127  0.41021E-05,        280

 NO OUTPUT CONTROL FOR STRESS PERIOD        2   TIME STEP       49



          TIME SUMMARY AT END OF TIME STEP        49 IN STRESS PERIOD         2
                    SECONDS     MINUTES      HOURS       DAYS        YEARS
                    -----------------------------------------------------------
   TIME STEP LENGTH  86.400      1.4400     2.40000E-02 1.00000E-03 2.73785E-06
 STRESS PERIOD TIME  4233.6      70.560      1.1760     4.90000E-02 1.34155E-04
         TOTAL TIME  90634.      1510.6      25.176      1.0490     2.87201E-03
1
 ------------------------------------------------------------------------------------------------------------
 
 SOLVING FOR TRANSPORT 

          SEQUENTIAL TRANSPORT ITERATION LOOP NUMBER    1
          -----------------------------------------------

 ------------------------------------------------------------------------------------------------------------------------
     1 CALLS TO SPARSE MATRIX SOLVER PACKAGE IN TRANSPORT TIME STEP      49 STRESS PERIOD       2 SPECIES  1

 TOTAL OF       1OUTER ITERATIONS
  MAXIMUM CHANGE FOR EACH ITERATION:
   MAX. CHANGE        NODE  MAX. CHANGE        NODE  MAX. CHANGE        NODE  MAX. CHANGE        NODE  MAX. CHANGE        NODE
 ------------------------------------------------------------------------------------------------------------------------------------
   -1.1737    ,         63
     TRANSPORT SOLUTION COMPLETE FOR COMPONENT SPECIES NUMBER    1
     ------------------------------------------------------------

 TRANSPORT SOLUTION COMPLETE FOR ALL SPECIES, SORTING OUTPUT FOR CONCENTRATIONS AND MASS BALANCE
 ----------------------------------------------------------------------------------------------------
     TRANSPORT OUTPUT FOR COMPONENT SPECIES NUMBER    1
     ------------------------------------------------------------
 -------------------------------------------------------------------------------------
 
 SOLVING FOR HEAD 

 Outer-Iteration  Inner-Iteration  Backtracking  Number of        Incoming       Outgoing      Cutoff     Maximum Head Change      Maximum Head Change
     Number           Count           Flag       Backtracks       Residual       Residual      Residual            Value               Location
        1                             0             0          0.168544E-01     0.168544E-01   -1.00000    
        1               13                                                                                       0.201951E-03               3127           GWF-node number
        2                             0             0          0.158587E-05     0.158587E-05   -1.00000    
        2                2                                                                                       0.607346E-05               3122           GWF-node number
     2 CALLS TO SPARSE MATRIX SOLVER PACKAGE  IN FLOW TIME STEP      50 STRESS PERIOD       2

 TOTAL OF       2OUTER ITERATIONS
  MAXIMUM CHANGE FOR EACH ITERATION:
   MAX. CHANGE        NODE  MAX. CHANGE        NODE  MAX. CHANGE        NODE  MAX. CHANGE        NODE  MAX. CHANGE        NODE
 ------------------------------------------------------------------------------------------------------------------------------------
   0.20195E-03,       3127  0.60735E-05,       3122

 NO OUTPUT CONTROL FOR STRESS PERIOD        2   TIME STEP       50



          TIME SUMMARY AT END OF TIME STEP        50 IN STRESS PERIOD         2
                    SECONDS     MINUTES      HOURS       DAYS        YEARS
                    -----------------------------------------------------------
   TIME STEP LENGTH  86.400      1.4400     2.40000E-02 1.00000E-03 2.73785E-06
 STRESS PERIOD TIME  4320.0      72.000      1.2000     5.00000E-02 1.36893E-04
         TOTAL TIME  90720.      1512.0      25.200      1.0500     2.87474E-03
1
 ------------------------------------------------------------------------------------------------------------
 
 SOLVING FOR TRANSPORT 

          SEQUENTIAL TRANSPORT ITERATION LOOP NUMBER    1
          -----------------------------------------------

 ------------------------------------------------------------------------------------------------------------------------
     1 CALLS TO SPARSE MATRIX SOLVER PACKAGE IN TRANSPORT TIME STEP      50 STRESS PERIOD       2 SPECIES  1

 TOTAL OF       1OUTER ITERATIONS
  MAXIMUM CHANGE FOR EACH ITERATION:
   MAX. CHANGE        NODE  MAX. CHANGE        NODE  MAX. CHANGE        NODE  MAX. CHANGE        NODE  MAX. CHANGE        NODE
 ------------------------------------------------------------------------------------------------------------------------------------
   -1.1586    ,         65
     TRANSPORT SOLUTION COMPLETE FOR COMPONENT SPECIES NUMBER    1
     ------------------------------------------------------------

 TRANSPORT SOLUTION COMPLETE FOR ALL SPECIES, SORTING OUTPUT FOR CONCENTRATIONS AND MASS BALANCE
 ----------------------------------------------------------------------------------------------------
     TRANSPORT OUTPUT FOR COMPONENT SPECIES NUMBER    1
     ------------------------------------------------------------
 -------------------------------------------------------------------------------------
 
 SOLVING FOR HEAD 

 Outer-Iteration  Inner-Iteration  Backtracking  Number of        Incoming       Outgoing      Cutoff     Maximum Head Change      Maximum Head Change
     Number           Count           Flag       Backtracks       Residual       Residual      Residual            Value               Location
        1                             0             0          0.169573E-01     0.169573E-01   -1.00000    
        1               15                                                                                       0.204688E-03               3127           GWF-node number
        2                             0             0          0.810900E-06     0.810900E-06   -1.00000    
        2                5                                                                                       0.317542E-05                119           GWF-node number
     2 CALLS TO SPARSE MATRIX SOLVER PACKAGE  IN FLOW TIME STEP      51 STRESS PERIOD       2

 TOTAL OF       2OUTER ITERATIONS
  MAXIMUM CHANGE FOR EACH ITERATION:
   MAX. CHANGE        NODE  MAX. CHANGE        NODE  MAX. CHANGE        NODE  MAX. CHANGE        NODE  MAX. CHANGE        NODE
 ------------------------------------------------------------------------------------------------------------------------------------
   0.20469E-03,       3127  0.31754E-05,        119

 NO OUTPUT CONTROL FOR STRESS PERIOD        2   TIME STEP       51



          TIME SUMMARY AT END OF TIME STEP        51 IN STRESS PERIOD         2
                    SECONDS     MINUTES      HOURS       DAYS        YEARS
                    -----------------------------------------------------------
   TIME STEP LENGTH  86.400      1.4400     2.40000E-02 1.00000E-03 2.73785E-06
 STRESS PERIOD TIME  4406.4      73.440      1.2240     5.10000E-02 1.39630E-04
         TOTAL TIME  90806.      1513.4      25.224      1.0510     2.87748E-03
1
 ------------------------------------------------------------------------------------------------------------
 
 SOLVING FOR TRANSPORT 

          SEQUENTIAL TRANSPORT ITERATION LOOP NUMBER    1
          -----------------------------------------------

 ------------------------------------------------------------------------------------------------------------------------
     1 CALLS TO SPARSE MATRIX SOLVER PACKAGE IN TRANSPORT TIME STEP      51 STRESS PERIOD       2 SPECIES  1

 TOTAL OF       1OUTER ITERATIONS
  MAXIMUM CHANGE FOR EACH ITERATION:
   MAX. CHANGE        NODE  MAX. CHANGE        NODE  MAX. CHANGE        NODE  MAX. CHANGE        NODE  MAX. CHANGE        NODE
 ------------------------------------------------------------------------------------------------------------------------------------
   -1.1521    ,         66
     TRANSPORT SOLUTION COMPLETE FOR COMPONENT SPECIES NUMBER    1
     ------------------------------------------------------------

 TRANSPORT SOLUTION COMPLETE FOR ALL SPECIES, SORTING OUTPUT FOR CONCENTRATIONS AND MASS BALANCE
 ----------------------------------------------------------------------------------------------------
     TRANSPORT OUTPUT FOR COMPONENT SPECIES NUMBER    1
     ------------------------------------------------------------
 -------------------------------------------------------------------------------------
 
 SOLVING FOR HEAD 

 Outer-Iteration  Inner-Iteration  Backtracking  Number of        Incoming       Outgoing      Cutoff     Maximum Head Change      Maximum Head Change
     Number           Count           Flag       Backtracks       Residual       Residual      Residual            Value               Location
        1                             0             0          0.162559E-01     0.162559E-01   -1.00000    
        1               14                                                                                       0.200550E-03               3128           GWF-node number
        2                             0             0          0.699536E-06     0.699536E-06   -1.00000    
        2                5                                                                                       0.317662E-05                119           GWF-node number
     2 CALLS TO SPARSE MATRIX SOLVER PACKAGE  IN FLOW TIME STEP      52 STRESS PERIOD       2

 TOTAL OF       2OUTER ITERATIONS
  MAXIMUM CHANGE FOR EACH ITERATION:
   MAX. CHANGE        NODE  MAX. CHANGE        NODE  MAX. CHANGE        NODE  MAX. CHANGE        NODE  MAX. CHANGE        NODE
 ------------------------------------------------------------------------------------------------------------------------------------
   0.20055E-03,       3128  0.31766E-05,        119

 NO OUTPUT CONTROL FOR STRESS PERIOD        2   TIME STEP       52



          TIME SUMMARY AT END OF TIME STEP        52 IN STRESS PERIOD         2
                    SECONDS     MINUTES      HOURS       DAYS        YEARS
                    -----------------------------------------------------------
   TIME STEP LENGTH  86.400      1.4400     2.40000E-02 1.00000E-03 2.73785E-06
 STRESS PERIOD TIME  4492.8      74.880      1.2480     5.20000E-02 1.42368E-04
         TOTAL TIME  90893.      1514.9      25.248      1.0520     2.88022E-03
1
 ------------------------------------------------------------------------------------------------------------
 
 SOLVING FOR TRANSPORT 

          SEQUENTIAL TRANSPORT ITERATION LOOP NUMBER    1
          -----------------------------------------------

 ------------------------------------------------------------------------------------------------------------------------
     1 CALLS TO SPARSE MATRIX SOLVER PACKAGE IN TRANSPORT TIME STEP      52 STRESS PERIOD       2 SPECIES  1

 TOTAL OF       1OUTER ITERATIONS
  MAXIMUM CHANGE FOR EACH ITERATION:
   MAX. CHANGE        NODE  MAX. CHANGE        NODE  MAX. CHANGE        NODE  MAX. CHANGE        NODE  MAX. CHANGE        NODE
 ------------------------------------------------------------------------------------------------------------------------------------
   -1.1386    ,         67
     TRANSPORT SOLUTION COMPLETE FOR COMPONENT SPECIES NUMBER    1
     ------------------------------------------------------------

 TRANSPORT SOLUTION COMPLETE FOR ALL SPECIES, SORTING OUTPUT FOR CONCENTRATIONS AND MASS BALANCE
 ----------------------------------------------------------------------------------------------------
     TRANSPORT OUTPUT FOR COMPONENT SPECIES NUMBER    1
     ------------------------------------------------------------
 -------------------------------------------------------------------------------------
 
 SOLVING FOR HEAD 

 Outer-Iteration  Inner-Iteration  Backtracking  Number of        Incoming       Outgoing      Cutoff     Maximum Head Change      Maximum Head Change
     Number           Count           Flag       Backtracks       Residual       Residual      Residual            Value               Location
        1                             0             0          0.156527E-01     0.156527E-01   -1.00000    
        1               14                                                                                       0.203024E-03               3128           GWF-node number
        2                             0             0          0.641911E-06     0.641911E-06   -1.00000    
        2                5                                                                                       0.296142E-05               3123           GWF-node number
     2 CALLS TO SPARSE MATRIX SOLVER PACKAGE  IN FLOW TIME STEP      53 STRESS PERIOD       2

 TOTAL OF       2OUTER ITERATIONS
  MAXIMUM CHANGE FOR EACH ITERATION:
   MAX. CHANGE        NODE  MAX. CHANGE        NODE  MAX. CHANGE        NODE  MAX. CHANGE        NODE  MAX. CHANGE        NODE
 ------------------------------------------------------------------------------------------------------------------------------------
   0.20302E-03,       3128  0.29614E-05,       3123

 NO OUTPUT CONTROL FOR STRESS PERIOD        2   TIME STEP       53



          TIME SUMMARY AT END OF TIME STEP        53 IN STRESS PERIOD         2
                    SECONDS     MINUTES      HOURS       DAYS        YEARS
                    -----------------------------------------------------------
   TIME STEP LENGTH  86.400      1.4400     2.40000E-02 1.00000E-03 2.73785E-06
 STRESS PERIOD TIME  4579.2      76.320      1.2720     5.30000E-02 1.45106E-04
         TOTAL TIME  90979.      1516.3      25.272      1.0530     2.88296E-03
1
 ------------------------------------------------------------------------------------------------------------
 
 SOLVING FOR TRANSPORT 

          SEQUENTIAL TRANSPORT ITERATION LOOP NUMBER    1
          -----------------------------------------------

 ------------------------------------------------------------------------------------------------------------------------
     1 CALLS TO SPARSE MATRIX SOLVER PACKAGE IN TRANSPORT TIME STEP      53 STRESS PERIOD       2 SPECIES  1

 TOTAL OF       1OUTER ITERATIONS
  MAXIMUM CHANGE FOR EACH ITERATION:
   MAX. CHANGE        NODE  MAX. CHANGE        NODE  MAX. CHANGE        NODE  MAX. CHANGE        NODE  MAX. CHANGE        NODE
 ------------------------------------------------------------------------------------------------------------------------------------
   -1.1287    ,         68
     TRANSPORT SOLUTION COMPLETE FOR COMPONENT SPECIES NUMBER    1
     ------------------------------------------------------------

 TRANSPORT SOLUTION COMPLETE FOR ALL SPECIES, SORTING OUTPUT FOR CONCENTRATIONS AND MASS BALANCE
 ----------------------------------------------------------------------------------------------------
     TRANSPORT OUTPUT FOR COMPONENT SPECIES NUMBER    1
     ------------------------------------------------------------
 -------------------------------------------------------------------------------------
 
 SOLVING FOR HEAD 

 Outer-Iteration  Inner-Iteration  Backtracking  Number of        Incoming       Outgoing      Cutoff     Maximum Head Change      Maximum Head Change
     Number           Count           Flag       Backtracks       Residual       Residual      Residual            Value               Location
        1                             0             0          0.152876E-01     0.152876E-01   -1.00000    
        1               14                                                                                       0.202272E-03               3128           GWF-node number
        2                             0             0          0.688676E-06     0.688676E-06   -1.00000    
        2                5                                                                                       0.295707E-05               3123           GWF-node number
     2 CALLS TO SPARSE MATRIX SOLVER PACKAGE  IN FLOW TIME STEP      54 STRESS PERIOD       2

 TOTAL OF       2OUTER ITERATIONS
  MAXIMUM CHANGE FOR EACH ITERATION:
   MAX. CHANGE        NODE  MAX. CHANGE        NODE  MAX. CHANGE        NODE  MAX. CHANGE        NODE  MAX. CHANGE        NODE
 ------------------------------------------------------------------------------------------------------------------------------------
   0.20227E-03,       3128  0.29571E-05,       3123

 NO OUTPUT CONTROL FOR STRESS PERIOD        2   TIME STEP       54



          TIME SUMMARY AT END OF TIME STEP        54 IN STRESS PERIOD         2
                    SECONDS     MINUTES      HOURS       DAYS        YEARS
                    -----------------------------------------------------------
   TIME STEP LENGTH  86.400      1.4400     2.40000E-02 1.00000E-03 2.73785E-06
 STRESS PERIOD TIME  4665.6      77.760      1.2960     5.40000E-02 1.47844E-04
         TOTAL TIME  91066.      1517.8      25.296      1.0540     2.88569E-03
1
 ------------------------------------------------------------------------------------------------------------
 
 SOLVING FOR TRANSPORT 

          SEQUENTIAL TRANSPORT ITERATION LOOP NUMBER    1
          -----------------------------------------------

 ------------------------------------------------------------------------------------------------------------------------
     1 CALLS TO SPARSE MATRIX SOLVER PACKAGE IN TRANSPORT TIME STEP      54 STRESS PERIOD       2 SPECIES  1

 TOTAL OF       1OUTER ITERATIONS
  MAXIMUM CHANGE FOR EACH ITERATION:
   MAX. CHANGE        NODE  MAX. CHANGE        NODE  MAX. CHANGE        NODE  MAX. CHANGE        NODE  MAX. CHANGE        NODE
 ------------------------------------------------------------------------------------------------------------------------------------
   -1.1177    ,         69
     TRANSPORT SOLUTION COMPLETE FOR COMPONENT SPECIES NUMBER    1
     ------------------------------------------------------------

 TRANSPORT SOLUTION COMPLETE FOR ALL SPECIES, SORTING OUTPUT FOR CONCENTRATIONS AND MASS BALANCE
 ----------------------------------------------------------------------------------------------------
     TRANSPORT OUTPUT FOR COMPONENT SPECIES NUMBER    1
     ------------------------------------------------------------
 -------------------------------------------------------------------------------------
 
 SOLVING FOR HEAD 

 Outer-Iteration  Inner-Iteration  Backtracking  Number of        Incoming       Outgoing      Cutoff     Maximum Head Change      Maximum Head Change
     Number           Count           Flag       Backtracks       Residual       Residual      Residual            Value               Location
        1                             0             0          0.147824E-01     0.147824E-01   -1.00000    
        1               12                                                                                       0.203242E-03               3128           GWF-node number
        2                             0             0          0.428505E-05     0.428505E-05   -1.00000    
        2                4                                                                                       0.324389E-05                207           GWF-node number
     2 CALLS TO SPARSE MATRIX SOLVER PACKAGE  IN FLOW TIME STEP      55 STRESS PERIOD       2

 TOTAL OF       2OUTER ITERATIONS
  MAXIMUM CHANGE FOR EACH ITERATION:
   MAX. CHANGE        NODE  MAX. CHANGE        NODE  MAX. CHANGE        NODE  MAX. CHANGE        NODE  MAX. CHANGE        NODE
 ------------------------------------------------------------------------------------------------------------------------------------
   0.20324E-03,       3128  0.32439E-05,        207

 NO OUTPUT CONTROL FOR STRESS PERIOD        2   TIME STEP       55



          TIME SUMMARY AT END OF TIME STEP        55 IN STRESS PERIOD         2
                    SECONDS     MINUTES      HOURS       DAYS        YEARS
                    -----------------------------------------------------------
   TIME STEP LENGTH  86.400      1.4400     2.40000E-02 1.00000E-03 2.73785E-06
 STRESS PERIOD TIME  4752.0      79.200      1.3200     5.50000E-02 1.50582E-04
         TOTAL TIME  91152.      1519.2      25.320      1.0550     2.88843E-03
1
 ------------------------------------------------------------------------------------------------------------
 
 SOLVING FOR TRANSPORT 

          SEQUENTIAL TRANSPORT ITERATION LOOP NUMBER    1
          -----------------------------------------------

 ------------------------------------------------------------------------------------------------------------------------
     1 CALLS TO SPARSE MATRIX SOLVER PACKAGE IN TRANSPORT TIME STEP      55 STRESS PERIOD       2 SPECIES  1

 TOTAL OF       1OUTER ITERATIONS
  MAXIMUM CHANGE FOR EACH ITERATION:
   MAX. CHANGE        NODE  MAX. CHANGE        NODE  MAX. CHANGE        NODE  MAX. CHANGE        NODE  MAX. CHANGE        NODE
 ------------------------------------------------------------------------------------------------------------------------------------
   -1.1093    ,         71
     TRANSPORT SOLUTION COMPLETE FOR COMPONENT SPECIES NUMBER    1
     ------------------------------------------------------------

 TRANSPORT SOLUTION COMPLETE FOR ALL SPECIES, SORTING OUTPUT FOR CONCENTRATIONS AND MASS BALANCE
 ----------------------------------------------------------------------------------------------------
     TRANSPORT OUTPUT FOR COMPONENT SPECIES NUMBER    1
     ------------------------------------------------------------
 -------------------------------------------------------------------------------------
 
 SOLVING FOR HEAD 

 Outer-Iteration  Inner-Iteration  Backtracking  Number of        Incoming       Outgoing      Cutoff     Maximum Head Change      Maximum Head Change
     Number           Count           Flag       Backtracks       Residual       Residual      Residual            Value               Location
        1                             0             0          0.142244E-01     0.142244E-01   -1.00000    
        1               14                                                                                       0.202185E-03               3128           GWF-node number
        2                             0             0          0.777630E-06     0.777630E-06   -1.00000    
        2                3                                                                                       0.283222E-05               3123           GWF-node number
     2 CALLS TO SPARSE MATRIX SOLVER PACKAGE  IN FLOW TIME STEP      56 STRESS PERIOD       2

 TOTAL OF       2OUTER ITERATIONS
  MAXIMUM CHANGE FOR EACH ITERATION:
   MAX. CHANGE        NODE  MAX. CHANGE        NODE  MAX. CHANGE        NODE  MAX. CHANGE        NODE  MAX. CHANGE        NODE
 ------------------------------------------------------------------------------------------------------------------------------------
   0.20219E-03,       3128  0.28322E-05,       3123

 NO OUTPUT CONTROL FOR STRESS PERIOD        2   TIME STEP       56



          TIME SUMMARY AT END OF TIME STEP        56 IN STRESS PERIOD         2
                    SECONDS     MINUTES      HOURS       DAYS        YEARS
                    -----------------------------------------------------------
   TIME STEP LENGTH  86.400      1.4400     2.40000E-02 1.00000E-03 2.73785E-06
 STRESS PERIOD TIME  4838.4      80.640      1.3440     5.60000E-02 1.53320E-04
         TOTAL TIME  91238.      1520.6      25.344      1.0560     2.89117E-03
1
 ------------------------------------------------------------------------------------------------------------
 
 SOLVING FOR TRANSPORT 

          SEQUENTIAL TRANSPORT ITERATION LOOP NUMBER    1
          -----------------------------------------------

 ------------------------------------------------------------------------------------------------------------------------
     1 CALLS TO SPARSE MATRIX SOLVER PACKAGE IN TRANSPORT TIME STEP      56 STRESS PERIOD       2 SPECIES  1

 TOTAL OF       1OUTER ITERATIONS
  MAXIMUM CHANGE FOR EACH ITERATION:
   MAX. CHANGE        NODE  MAX. CHANGE        NODE  MAX. CHANGE        NODE  MAX. CHANGE        NODE  MAX. CHANGE        NODE
 ------------------------------------------------------------------------------------------------------------------------------------
   -1.1023    ,         72
     TRANSPORT SOLUTION COMPLETE FOR COMPONENT SPECIES NUMBER    1
     ------------------------------------------------------------

 TRANSPORT SOLUTION COMPLETE FOR ALL SPECIES, SORTING OUTPUT FOR CONCENTRATIONS AND MASS BALANCE
 ----------------------------------------------------------------------------------------------------
     TRANSPORT OUTPUT FOR COMPONENT SPECIES NUMBER    1
     ------------------------------------------------------------
 -------------------------------------------------------------------------------------
 
 SOLVING FOR HEAD 

 Outer-Iteration  Inner-Iteration  Backtracking  Number of        Incoming       Outgoing      Cutoff     Maximum Head Change      Maximum Head Change
     Number           Count           Flag       Backtracks       Residual       Residual      Residual            Value               Location
        1                             0             0          0.137682E-01     0.137682E-01   -1.00000    
        1               13                                                                                       0.202914E-03               3128           GWF-node number
        2                             0             0          0.233479E-05     0.233479E-05   -1.00000    
        2                3                                                                                       0.321021E-05                754           GWF-node number
     2 CALLS TO SPARSE MATRIX SOLVER PACKAGE  IN FLOW TIME STEP      57 STRESS PERIOD       2

 TOTAL OF       2OUTER ITERATIONS
  MAXIMUM CHANGE FOR EACH ITERATION:
   MAX. CHANGE        NODE  MAX. CHANGE        NODE  MAX. CHANGE        NODE  MAX. CHANGE        NODE  MAX. CHANGE        NODE
 ------------------------------------------------------------------------------------------------------------------------------------
   0.20291E-03,       3128  0.32102E-05,        754

 NO OUTPUT CONTROL FOR STRESS PERIOD        2   TIME STEP       57



          TIME SUMMARY AT END OF TIME STEP        57 IN STRESS PERIOD         2
                    SECONDS     MINUTES      HOURS       DAYS        YEARS
                    -----------------------------------------------------------
   TIME STEP LENGTH  86.400      1.4400     2.40000E-02 1.00000E-03 2.73785E-06
 STRESS PERIOD TIME  4924.8      82.080      1.3680     5.70000E-02 1.56057E-04
         TOTAL TIME  91325.      1522.1      25.368      1.0570     2.89391E-03
1
 ------------------------------------------------------------------------------------------------------------
 
 SOLVING FOR TRANSPORT 

          SEQUENTIAL TRANSPORT ITERATION LOOP NUMBER    1
          -----------------------------------------------

 ------------------------------------------------------------------------------------------------------------------------
     1 CALLS TO SPARSE MATRIX SOLVER PACKAGE IN TRANSPORT TIME STEP      57 STRESS PERIOD       2 SPECIES  1

 TOTAL OF       1OUTER ITERATIONS
  MAXIMUM CHANGE FOR EACH ITERATION:
   MAX. CHANGE        NODE  MAX. CHANGE        NODE  MAX. CHANGE        NODE  MAX. CHANGE        NODE  MAX. CHANGE        NODE
 ------------------------------------------------------------------------------------------------------------------------------------
   -1.0975    ,         73
     TRANSPORT SOLUTION COMPLETE FOR COMPONENT SPECIES NUMBER    1
     ------------------------------------------------------------

 TRANSPORT SOLUTION COMPLETE FOR ALL SPECIES, SORTING OUTPUT FOR CONCENTRATIONS AND MASS BALANCE
 ----------------------------------------------------------------------------------------------------
     TRANSPORT OUTPUT FOR COMPONENT SPECIES NUMBER    1
     ------------------------------------------------------------
 -------------------------------------------------------------------------------------
 
 SOLVING FOR HEAD 

 Outer-Iteration  Inner-Iteration  Backtracking  Number of        Incoming       Outgoing      Cutoff     Maximum Head Change      Maximum Head Change
     Number           Count           Flag       Backtracks       Residual       Residual      Residual            Value               Location
        1                             0             0          0.132045E-01     0.132045E-01   -1.00000    
        1               13                                                                                       0.202953E-03               3128           GWF-node number
        2                             0             0          0.275425E-05     0.275425E-05   -1.00000    
        2                5                                                                                       0.271043E-05                520           GWF-node number
     2 CALLS TO SPARSE MATRIX SOLVER PACKAGE  IN FLOW TIME STEP      58 STRESS PERIOD       2

 TOTAL OF       2OUTER ITERATIONS
  MAXIMUM CHANGE FOR EACH ITERATION:
   MAX. CHANGE        NODE  MAX. CHANGE        NODE  MAX. CHANGE        NODE  MAX. CHANGE        NODE  MAX. CHANGE        NODE
 ------------------------------------------------------------------------------------------------------------------------------------
   0.20295E-03,       3128  0.27104E-05,        520

 NO OUTPUT CONTROL FOR STRESS PERIOD        2   TIME STEP       58



          TIME SUMMARY AT END OF TIME STEP        58 IN STRESS PERIOD         2
                    SECONDS     MINUTES      HOURS       DAYS        YEARS
                    -----------------------------------------------------------
   TIME STEP LENGTH  86.400      1.4400     2.40000E-02 1.00000E-03 2.73785E-06
 STRESS PERIOD TIME  5011.2      83.520      1.3920     5.80000E-02 1.58795E-04
         TOTAL TIME  91411.      1523.5      25.392      1.0580     2.89665E-03
1
 ------------------------------------------------------------------------------------------------------------
 
 SOLVING FOR TRANSPORT 

          SEQUENTIAL TRANSPORT ITERATION LOOP NUMBER    1
          -----------------------------------------------

 ------------------------------------------------------------------------------------------------------------------------
     1 CALLS TO SPARSE MATRIX SOLVER PACKAGE IN TRANSPORT TIME STEP      58 STRESS PERIOD       2 SPECIES  1

 TOTAL OF       1OUTER ITERATIONS
  MAXIMUM CHANGE FOR EACH ITERATION:
   MAX. CHANGE        NODE  MAX. CHANGE        NODE  MAX. CHANGE        NODE  MAX. CHANGE        NODE  MAX. CHANGE        NODE
 ------------------------------------------------------------------------------------------------------------------------------------
   -1.0986    ,         75
     TRANSPORT SOLUTION COMPLETE FOR COMPONENT SPECIES NUMBER    1
     ------------------------------------------------------------

 TRANSPORT SOLUTION COMPLETE FOR ALL SPECIES, SORTING OUTPUT FOR CONCENTRATIONS AND MASS BALANCE
 ----------------------------------------------------------------------------------------------------
     TRANSPORT OUTPUT FOR COMPONENT SPECIES NUMBER    1
     ------------------------------------------------------------
 -------------------------------------------------------------------------------------
 
 SOLVING FOR HEAD 

 Outer-Iteration  Inner-Iteration  Backtracking  Number of        Incoming       Outgoing      Cutoff     Maximum Head Change      Maximum Head Change
     Number           Count           Flag       Backtracks       Residual       Residual      Residual            Value               Location
        1                             0             0          0.129326E-01     0.129326E-01   -1.00000    
        1               13                                                                                       0.198034E-03               3129           GWF-node number
        2                             0             0          0.828638E-06     0.828638E-06   -1.00000    
        2                4                                                                                       0.207326E-05                440           GWF-node number
     2 CALLS TO SPARSE MATRIX SOLVER PACKAGE  IN FLOW TIME STEP      59 STRESS PERIOD       2

 TOTAL OF       2OUTER ITERATIONS
  MAXIMUM CHANGE FOR EACH ITERATION:
   MAX. CHANGE        NODE  MAX. CHANGE        NODE  MAX. CHANGE        NODE  MAX. CHANGE        NODE  MAX. CHANGE        NODE
 ------------------------------------------------------------------------------------------------------------------------------------
   0.19803E-03,       3129  0.20733E-05,        440

 NO OUTPUT CONTROL FOR STRESS PERIOD        2   TIME STEP       59



          TIME SUMMARY AT END OF TIME STEP        59 IN STRESS PERIOD         2
                    SECONDS     MINUTES      HOURS       DAYS        YEARS
                    -----------------------------------------------------------
   TIME STEP LENGTH  86.400      1.4400     2.40000E-02 1.00000E-03 2.73785E-06
 STRESS PERIOD TIME  5097.6      84.960      1.4160     5.90000E-02 1.61533E-04
         TOTAL TIME  91498.      1525.0      25.416      1.0590     2.89938E-03
1
 ------------------------------------------------------------------------------------------------------------
 
 SOLVING FOR TRANSPORT 

          SEQUENTIAL TRANSPORT ITERATION LOOP NUMBER    1
          -----------------------------------------------

 ------------------------------------------------------------------------------------------------------------------------
     1 CALLS TO SPARSE MATRIX SOLVER PACKAGE IN TRANSPORT TIME STEP      59 STRESS PERIOD       2 SPECIES  1

 TOTAL OF       1OUTER ITERATIONS
  MAXIMUM CHANGE FOR EACH ITERATION:
   MAX. CHANGE        NODE  MAX. CHANGE        NODE  MAX. CHANGE        NODE  MAX. CHANGE        NODE  MAX. CHANGE        NODE
 ------------------------------------------------------------------------------------------------------------------------------------
   -1.0946    ,         76
     TRANSPORT SOLUTION COMPLETE FOR COMPONENT SPECIES NUMBER    1
     ------------------------------------------------------------

 TRANSPORT SOLUTION COMPLETE FOR ALL SPECIES, SORTING OUTPUT FOR CONCENTRATIONS AND MASS BALANCE
 ----------------------------------------------------------------------------------------------------
     TRANSPORT OUTPUT FOR COMPONENT SPECIES NUMBER    1
     ------------------------------------------------------------
 -------------------------------------------------------------------------------------
 
 SOLVING FOR HEAD 

 Outer-Iteration  Inner-Iteration  Backtracking  Number of        Incoming       Outgoing      Cutoff     Maximum Head Change      Maximum Head Change
     Number           Count           Flag       Backtracks       Residual       Residual      Residual            Value               Location
        1                             0             0          0.124641E-01     0.124641E-01   -1.00000    
        1               13                                                                                       0.200360E-03               3129           GWF-node number
        2                             0             0          0.109775E-05     0.109775E-05   -1.00000    
        2                3                                                                                       0.227883E-05               3044           GWF-node number
     2 CALLS TO SPARSE MATRIX SOLVER PACKAGE  IN FLOW TIME STEP      60 STRESS PERIOD       2

 TOTAL OF       2OUTER ITERATIONS
  MAXIMUM CHANGE FOR EACH ITERATION:
   MAX. CHANGE        NODE  MAX. CHANGE        NODE  MAX. CHANGE        NODE  MAX. CHANGE        NODE  MAX. CHANGE        NODE
 ------------------------------------------------------------------------------------------------------------------------------------
   0.20036E-03,       3129  0.22788E-05,       3044

 NO OUTPUT CONTROL FOR STRESS PERIOD        2   TIME STEP       60



          TIME SUMMARY AT END OF TIME STEP        60 IN STRESS PERIOD         2
                    SECONDS     MINUTES      HOURS       DAYS        YEARS
                    -----------------------------------------------------------
   TIME STEP LENGTH  86.400      1.4400     2.40000E-02 1.00000E-03 2.73785E-06
 STRESS PERIOD TIME  5184.0      86.400      1.4400     6.00000E-02 1.64271E-04
         TOTAL TIME  91584.      1526.4      25.440      1.0600     2.90212E-03
1
 ------------------------------------------------------------------------------------------------------------
 
 SOLVING FOR TRANSPORT 

          SEQUENTIAL TRANSPORT ITERATION LOOP NUMBER    1
          -----------------------------------------------

 ------------------------------------------------------------------------------------------------------------------------
     1 CALLS TO SPARSE MATRIX SOLVER PACKAGE IN TRANSPORT TIME STEP      60 STRESS PERIOD       2 SPECIES  1

 TOTAL OF       1OUTER ITERATIONS
  MAXIMUM CHANGE FOR EACH ITERATION:
   MAX. CHANGE        NODE  MAX. CHANGE        NODE  MAX. CHANGE        NODE  MAX. CHANGE        NODE  MAX. CHANGE        NODE
 ------------------------------------------------------------------------------------------------------------------------------------
   -1.0917    ,         78
     TRANSPORT SOLUTION COMPLETE FOR COMPONENT SPECIES NUMBER    1
     ------------------------------------------------------------

 TRANSPORT SOLUTION COMPLETE FOR ALL SPECIES, SORTING OUTPUT FOR CONCENTRATIONS AND MASS BALANCE
 ----------------------------------------------------------------------------------------------------
     TRANSPORT OUTPUT FOR COMPONENT SPECIES NUMBER    1
     ------------------------------------------------------------
 -------------------------------------------------------------------------------------
 
 SOLVING FOR HEAD 

 Outer-Iteration  Inner-Iteration  Backtracking  Number of        Incoming       Outgoing      Cutoff     Maximum Head Change      Maximum Head Change
     Number           Count           Flag       Backtracks       Residual       Residual      Residual            Value               Location
        1                             0             0          0.120731E-01     0.120731E-01   -1.00000    
        1                7                                                                                       0.213551E-03               3129           GWF-node number
        2                             0             0          0.937430E-03     0.937430E-03   -1.00000    
        2                9                                                                                      -0.130953E-04               1450           GWF-node number
        3                             0             0          0.272536E-05     0.272536E-05   -1.00000    
        3                2                                                                                      -0.181735E-05               1688           GWF-node number
     3 CALLS TO SPARSE MATRIX SOLVER PACKAGE  IN FLOW TIME STEP      61 STRESS PERIOD       2

 TOTAL OF       3OUTER ITERATIONS
  MAXIMUM CHANGE FOR EACH ITERATION:
   MAX. CHANGE        NODE  MAX. CHANGE        NODE  MAX. CHANGE        NODE  MAX. CHANGE        NODE  MAX. CHANGE        NODE
 ------------------------------------------------------------------------------------------------------------------------------------
   0.21355E-03,       3129 -0.13095E-04,       1450 -0.18173E-05,       1688

 NO OUTPUT CONTROL FOR STRESS PERIOD        2   TIME STEP       61



          TIME SUMMARY AT END OF TIME STEP        61 IN STRESS PERIOD         2
                    SECONDS     MINUTES      HOURS       DAYS        YEARS
                    -----------------------------------------------------------
   TIME STEP LENGTH  86.400      1.4400     2.40000E-02 1.00000E-03 2.73785E-06
 STRESS PERIOD TIME  5270.4      87.840      1.4640     6.10000E-02 1.67009E-04
         TOTAL TIME  91670.      1527.8      25.464      1.0610     2.90486E-03
1
 ------------------------------------------------------------------------------------------------------------
 
 SOLVING FOR TRANSPORT 

          SEQUENTIAL TRANSPORT ITERATION LOOP NUMBER    1
          -----------------------------------------------

 ------------------------------------------------------------------------------------------------------------------------
     1 CALLS TO SPARSE MATRIX SOLVER PACKAGE IN TRANSPORT TIME STEP      61 STRESS PERIOD       2 SPECIES  1

 TOTAL OF       1OUTER ITERATIONS
  MAXIMUM CHANGE FOR EACH ITERATION:
   MAX. CHANGE        NODE  MAX. CHANGE        NODE  MAX. CHANGE        NODE  MAX. CHANGE        NODE  MAX. CHANGE        NODE
 ------------------------------------------------------------------------------------------------------------------------------------
   -1.0873    ,         79
     TRANSPORT SOLUTION COMPLETE FOR COMPONENT SPECIES NUMBER    1
     ------------------------------------------------------------

 TRANSPORT SOLUTION COMPLETE FOR ALL SPECIES, SORTING OUTPUT FOR CONCENTRATIONS AND MASS BALANCE
 ----------------------------------------------------------------------------------------------------
     TRANSPORT OUTPUT FOR COMPONENT SPECIES NUMBER    1
     ------------------------------------------------------------
 -------------------------------------------------------------------------------------
 
 SOLVING FOR HEAD 

 Outer-Iteration  Inner-Iteration  Backtracking  Number of        Incoming       Outgoing      Cutoff     Maximum Head Change      Maximum Head Change
     Number           Count           Flag       Backtracks       Residual       Residual      Residual            Value               Location
        1                             0             0          0.116737E-01     0.116737E-01   -1.00000    
        1               14                                                                                       0.198124E-03               3129           GWF-node number
        2                             0             0          0.645951E-05     0.645951E-05   -1.00000    
        2                6                                                                                       0.278423E-05               2561           GWF-node number
     2 CALLS TO SPARSE MATRIX SOLVER PACKAGE  IN FLOW TIME STEP      62 STRESS PERIOD       2

 TOTAL OF       2OUTER ITERATIONS
  MAXIMUM CHANGE FOR EACH ITERATION:
   MAX. CHANGE        NODE  MAX. CHANGE        NODE  MAX. CHANGE        NODE  MAX. CHANGE        NODE  MAX. CHANGE        NODE
 ------------------------------------------------------------------------------------------------------------------------------------
   0.19812E-03,       3129  0.27842E-05,       2561

 NO OUTPUT CONTROL FOR STRESS PERIOD        2   TIME STEP       62



          TIME SUMMARY AT END OF TIME STEP        62 IN STRESS PERIOD         2
                    SECONDS     MINUTES      HOURS       DAYS        YEARS
                    -----------------------------------------------------------
   TIME STEP LENGTH  86.400      1.4400     2.40000E-02 1.00000E-03 2.73785E-06
 STRESS PERIOD TIME  5356.8      89.280      1.4880     6.20000E-02 1.69747E-04
         TOTAL TIME  91757.      1529.3      25.488      1.0620     2.90760E-03
1
 ------------------------------------------------------------------------------------------------------------
 
 SOLVING FOR TRANSPORT 

          SEQUENTIAL TRANSPORT ITERATION LOOP NUMBER    1
          -----------------------------------------------

 ------------------------------------------------------------------------------------------------------------------------
     1 CALLS TO SPARSE MATRIX SOLVER PACKAGE IN TRANSPORT TIME STEP      62 STRESS PERIOD       2 SPECIES  1

 TOTAL OF       1OUTER ITERATIONS
  MAXIMUM CHANGE FOR EACH ITERATION:
   MAX. CHANGE        NODE  MAX. CHANGE        NODE  MAX. CHANGE        NODE  MAX. CHANGE        NODE  MAX. CHANGE        NODE
 ------------------------------------------------------------------------------------------------------------------------------------
   -1.0907    ,         80
     TRANSPORT SOLUTION COMPLETE FOR COMPONENT SPECIES NUMBER    1
     ------------------------------------------------------------

 TRANSPORT SOLUTION COMPLETE FOR ALL SPECIES, SORTING OUTPUT FOR CONCENTRATIONS AND MASS BALANCE
 ----------------------------------------------------------------------------------------------------
     TRANSPORT OUTPUT FOR COMPONENT SPECIES NUMBER    1
     ------------------------------------------------------------
 -------------------------------------------------------------------------------------
 
 SOLVING FOR HEAD 

 Outer-Iteration  Inner-Iteration  Backtracking  Number of        Incoming       Outgoing      Cutoff     Maximum Head Change      Maximum Head Change
     Number           Count           Flag       Backtracks       Residual       Residual      Residual            Value               Location
        1                             0             0          0.110750E-01     0.110750E-01   -1.00000    
        1               13                                                                                       0.202239E-03               3129           GWF-node number
        2                             0             0          0.539392E-06     0.539392E-06   -1.00000    
        2                1                                                                                      -0.730522E-06               3138           GWF-node number
     2 CALLS TO SPARSE MATRIX SOLVER PACKAGE  IN FLOW TIME STEP      63 STRESS PERIOD       2

 TOTAL OF       2OUTER ITERATIONS
  MAXIMUM CHANGE FOR EACH ITERATION:
   MAX. CHANGE        NODE  MAX. CHANGE        NODE  MAX. CHANGE        NODE  MAX. CHANGE        NODE  MAX. CHANGE        NODE
 ------------------------------------------------------------------------------------------------------------------------------------
   0.20224E-03,       3129 -0.73052E-06,       3138

 NO OUTPUT CONTROL FOR STRESS PERIOD        2   TIME STEP       63



          TIME SUMMARY AT END OF TIME STEP        63 IN STRESS PERIOD         2
                    SECONDS     MINUTES      HOURS       DAYS        YEARS
                    -----------------------------------------------------------
   TIME STEP LENGTH  86.400      1.4400     2.40000E-02 1.00000E-03 2.73785E-06
 STRESS PERIOD TIME  5443.2      90.720      1.5120     6.30000E-02 1.72485E-04
         TOTAL TIME  91843.      1530.7      25.512      1.0630     2.91034E-03
1
 ------------------------------------------------------------------------------------------------------------
 
 SOLVING FOR TRANSPORT 

          SEQUENTIAL TRANSPORT ITERATION LOOP NUMBER    1
          -----------------------------------------------

 ------------------------------------------------------------------------------------------------------------------------
     1 CALLS TO SPARSE MATRIX SOLVER PACKAGE IN TRANSPORT TIME STEP      63 STRESS PERIOD       2 SPECIES  1

 TOTAL OF       1OUTER ITERATIONS
  MAXIMUM CHANGE FOR EACH ITERATION:
   MAX. CHANGE        NODE  MAX. CHANGE        NODE  MAX. CHANGE        NODE  MAX. CHANGE        NODE  MAX. CHANGE        NODE
 ------------------------------------------------------------------------------------------------------------------------------------
   -1.0651    ,         80
     TRANSPORT SOLUTION COMPLETE FOR COMPONENT SPECIES NUMBER    1
     ------------------------------------------------------------

 TRANSPORT SOLUTION COMPLETE FOR ALL SPECIES, SORTING OUTPUT FOR CONCENTRATIONS AND MASS BALANCE
 ----------------------------------------------------------------------------------------------------
     TRANSPORT OUTPUT FOR COMPONENT SPECIES NUMBER    1
     ------------------------------------------------------------
 -------------------------------------------------------------------------------------
 
 SOLVING FOR HEAD 

 Outer-Iteration  Inner-Iteration  Backtracking  Number of        Incoming       Outgoing      Cutoff     Maximum Head Change      Maximum Head Change
     Number           Count           Flag       Backtracks       Residual       Residual      Residual            Value               Location
        1                             0             0          0.106113E-01     0.106113E-01   -1.00000    
        1               13                                                                                       0.204521E-03               3130           GWF-node number
        2                             0             0          0.108985E-05     0.108985E-05   -1.00000    
        2                4                                                                                       0.181439E-05                445           GWF-node number
     2 CALLS TO SPARSE MATRIX SOLVER PACKAGE  IN FLOW TIME STEP      64 STRESS PERIOD       2

 TOTAL OF       2OUTER ITERATIONS
  MAXIMUM CHANGE FOR EACH ITERATION:
   MAX. CHANGE        NODE  MAX. CHANGE        NODE  MAX. CHANGE        NODE  MAX. CHANGE        NODE  MAX. CHANGE        NODE
 ------------------------------------------------------------------------------------------------------------------------------------
   0.20452E-03,       3130  0.18144E-05,        445

 NO OUTPUT CONTROL FOR STRESS PERIOD        2   TIME STEP       64



          TIME SUMMARY AT END OF TIME STEP        64 IN STRESS PERIOD         2
                    SECONDS     MINUTES      HOURS       DAYS        YEARS
                    -----------------------------------------------------------
   TIME STEP LENGTH  86.400      1.4400     2.40000E-02 1.00000E-03 2.73785E-06
 STRESS PERIOD TIME  5529.6      92.160      1.5360     6.40000E-02 1.75222E-04
         TOTAL TIME  91930.      1532.2      25.536      1.0640     2.91307E-03
1
 ------------------------------------------------------------------------------------------------------------
 
 SOLVING FOR TRANSPORT 

          SEQUENTIAL TRANSPORT ITERATION LOOP NUMBER    1
          -----------------------------------------------

 ------------------------------------------------------------------------------------------------------------------------
     1 CALLS TO SPARSE MATRIX SOLVER PACKAGE IN TRANSPORT TIME STEP      64 STRESS PERIOD       2 SPECIES  1

 TOTAL OF       1OUTER ITERATIONS
  MAXIMUM CHANGE FOR EACH ITERATION:
   MAX. CHANGE        NODE  MAX. CHANGE        NODE  MAX. CHANGE        NODE  MAX. CHANGE        NODE  MAX. CHANGE        NODE
 ------------------------------------------------------------------------------------------------------------------------------------
   -1.0401    ,         80
     TRANSPORT SOLUTION COMPLETE FOR COMPONENT SPECIES NUMBER    1
     ------------------------------------------------------------

 TRANSPORT SOLUTION COMPLETE FOR ALL SPECIES, SORTING OUTPUT FOR CONCENTRATIONS AND MASS BALANCE
 ----------------------------------------------------------------------------------------------------
     TRANSPORT OUTPUT FOR COMPONENT SPECIES NUMBER    1
     ------------------------------------------------------------
 -------------------------------------------------------------------------------------
 
 SOLVING FOR HEAD 

 Outer-Iteration  Inner-Iteration  Backtracking  Number of        Incoming       Outgoing      Cutoff     Maximum Head Change      Maximum Head Change
     Number           Count           Flag       Backtracks       Residual       Residual      Residual            Value               Location
        1                             0             0          0.103029E-01     0.103029E-01   -1.00000    
        1               13                                                                                       0.203833E-03               3130           GWF-node number
        2                             0             0          0.828995E-06     0.828995E-06   -1.00000    
        2                1                                                                                      -0.985096E-06               2978           GWF-node number
     2 CALLS TO SPARSE MATRIX SOLVER PACKAGE  IN FLOW TIME STEP      65 STRESS PERIOD       2

 TOTAL OF       2OUTER ITERATIONS
  MAXIMUM CHANGE FOR EACH ITERATION:
   MAX. CHANGE        NODE  MAX. CHANGE        NODE  MAX. CHANGE        NODE  MAX. CHANGE        NODE  MAX. CHANGE        NODE
 ------------------------------------------------------------------------------------------------------------------------------------
   0.20383E-03,       3130 -0.98510E-06,       2978

 NO OUTPUT CONTROL FOR STRESS PERIOD        2   TIME STEP       65



          TIME SUMMARY AT END OF TIME STEP        65 IN STRESS PERIOD         2
                    SECONDS     MINUTES      HOURS       DAYS        YEARS
                    -----------------------------------------------------------
   TIME STEP LENGTH  86.400      1.4400     2.40000E-02 1.00000E-03 2.73785E-06
 STRESS PERIOD TIME  5616.0      93.600      1.5600     6.50000E-02 1.77960E-04
         TOTAL TIME  92016.      1533.6      25.560      1.0650     2.91581E-03
1
 ------------------------------------------------------------------------------------------------------------
 
 SOLVING FOR TRANSPORT 

          SEQUENTIAL TRANSPORT ITERATION LOOP NUMBER    1
          -----------------------------------------------

 ------------------------------------------------------------------------------------------------------------------------
     1 CALLS TO SPARSE MATRIX SOLVER PACKAGE IN TRANSPORT TIME STEP      65 STRESS PERIOD       2 SPECIES  1

 TOTAL OF       1OUTER ITERATIONS
  MAXIMUM CHANGE FOR EACH ITERATION:
   MAX. CHANGE        NODE  MAX. CHANGE        NODE  MAX. CHANGE        NODE  MAX. CHANGE        NODE  MAX. CHANGE        NODE
 ------------------------------------------------------------------------------------------------------------------------------------
  -0.99898    ,         80
     TRANSPORT SOLUTION COMPLETE FOR COMPONENT SPECIES NUMBER    1
     ------------------------------------------------------------

 TRANSPORT SOLUTION COMPLETE FOR ALL SPECIES, SORTING OUTPUT FOR CONCENTRATIONS AND MASS BALANCE
 ----------------------------------------------------------------------------------------------------
     TRANSPORT OUTPUT FOR COMPONENT SPECIES NUMBER    1
     ------------------------------------------------------------
 -------------------------------------------------------------------------------------
 
 SOLVING FOR HEAD 

 Outer-Iteration  Inner-Iteration  Backtracking  Number of        Incoming       Outgoing      Cutoff     Maximum Head Change      Maximum Head Change
     Number           Count           Flag       Backtracks       Residual       Residual      Residual            Value               Location
        1                             0             0          0.997369E-02     0.997369E-02   -1.00000    
        1               15                                                                                       0.205920E-03               3130           GWF-node number
        2                             0             0          0.328655E-06     0.328655E-06   -1.00000    
        2                1                                                                                       0.970514E-06               3124           GWF-node number
     2 CALLS TO SPARSE MATRIX SOLVER PACKAGE  IN FLOW TIME STEP      66 STRESS PERIOD       2

 TOTAL OF       2OUTER ITERATIONS
  MAXIMUM CHANGE FOR EACH ITERATION:
   MAX. CHANGE        NODE  MAX. CHANGE        NODE  MAX. CHANGE        NODE  MAX. CHANGE        NODE  MAX. CHANGE        NODE
 ------------------------------------------------------------------------------------------------------------------------------------
   0.20592E-03,       3130  0.97051E-06,       3124

 NO OUTPUT CONTROL FOR STRESS PERIOD        2   TIME STEP       66



          TIME SUMMARY AT END OF TIME STEP        66 IN STRESS PERIOD         2
                    SECONDS     MINUTES      HOURS       DAYS        YEARS
                    -----------------------------------------------------------
   TIME STEP LENGTH  86.400      1.4400     2.40000E-02 1.00000E-03 2.73785E-06
 STRESS PERIOD TIME  5702.4      95.040      1.5840     6.60000E-02 1.80698E-04
         TOTAL TIME  92102.      1535.0      25.584      1.0660     2.91855E-03
1
 ------------------------------------------------------------------------------------------------------------
 
 SOLVING FOR TRANSPORT 

          SEQUENTIAL TRANSPORT ITERATION LOOP NUMBER    1
          -----------------------------------------------

 ------------------------------------------------------------------------------------------------------------------------
     1 CALLS TO SPARSE MATRIX SOLVER PACKAGE IN TRANSPORT TIME STEP      66 STRESS PERIOD       2 SPECIES  1

 TOTAL OF       1OUTER ITERATIONS
  MAXIMUM CHANGE FOR EACH ITERATION:
   MAX. CHANGE        NODE  MAX. CHANGE        NODE  MAX. CHANGE        NODE  MAX. CHANGE        NODE  MAX. CHANGE        NODE
 ------------------------------------------------------------------------------------------------------------------------------------
  -0.96519    ,         80
     TRANSPORT SOLUTION COMPLETE FOR COMPONENT SPECIES NUMBER    1
     ------------------------------------------------------------

 TRANSPORT SOLUTION COMPLETE FOR ALL SPECIES, SORTING OUTPUT FOR CONCENTRATIONS AND MASS BALANCE
 ----------------------------------------------------------------------------------------------------
     TRANSPORT OUTPUT FOR COMPONENT SPECIES NUMBER    1
     ------------------------------------------------------------
 -------------------------------------------------------------------------------------
 
 SOLVING FOR HEAD 

 Outer-Iteration  Inner-Iteration  Backtracking  Number of        Incoming       Outgoing      Cutoff     Maximum Head Change      Maximum Head Change
     Number           Count           Flag       Backtracks       Residual       Residual      Residual            Value               Location
        1                             0             0          0.968332E-02     0.968332E-02   -1.00000    
        1               14                                                                                       0.208981E-03               3130           GWF-node number
        2                             0             0          0.569761E-06     0.569761E-06   -1.00000    
        2                3                                                                                       0.146968E-05                289           GWF-node number
     2 CALLS TO SPARSE MATRIX SOLVER PACKAGE  IN FLOW TIME STEP      67 STRESS PERIOD       2

 TOTAL OF       2OUTER ITERATIONS
  MAXIMUM CHANGE FOR EACH ITERATION:
   MAX. CHANGE        NODE  MAX. CHANGE        NODE  MAX. CHANGE        NODE  MAX. CHANGE        NODE  MAX. CHANGE        NODE
 ------------------------------------------------------------------------------------------------------------------------------------
   0.20898E-03,       3130  0.14697E-05,        289

 NO OUTPUT CONTROL FOR STRESS PERIOD        2   TIME STEP       67



          TIME SUMMARY AT END OF TIME STEP        67 IN STRESS PERIOD         2
                    SECONDS     MINUTES      HOURS       DAYS        YEARS
                    -----------------------------------------------------------
   TIME STEP LENGTH  86.400      1.4400     2.40000E-02 1.00000E-03 2.73785E-06
 STRESS PERIOD TIME  5788.8      96.480      1.6080     6.70000E-02 1.83436E-04
         TOTAL TIME  92189.      1536.5      25.608      1.0670     2.92129E-03
1
 ------------------------------------------------------------------------------------------------------------
 
 SOLVING FOR TRANSPORT 

          SEQUENTIAL TRANSPORT ITERATION LOOP NUMBER    1
          -----------------------------------------------

 ------------------------------------------------------------------------------------------------------------------------
     1 CALLS TO SPARSE MATRIX SOLVER PACKAGE IN TRANSPORT TIME STEP      67 STRESS PERIOD       2 SPECIES  1

 TOTAL OF       1OUTER ITERATIONS
  MAXIMUM CHANGE FOR EACH ITERATION:
   MAX. CHANGE        NODE  MAX. CHANGE        NODE  MAX. CHANGE        NODE  MAX. CHANGE        NODE  MAX. CHANGE        NODE
 ------------------------------------------------------------------------------------------------------------------------------------
  -0.91855    ,         80
     TRANSPORT SOLUTION COMPLETE FOR COMPONENT SPECIES NUMBER    1
     ------------------------------------------------------------

 TRANSPORT SOLUTION COMPLETE FOR ALL SPECIES, SORTING OUTPUT FOR CONCENTRATIONS AND MASS BALANCE
 ----------------------------------------------------------------------------------------------------
     TRANSPORT OUTPUT FOR COMPONENT SPECIES NUMBER    1
     ------------------------------------------------------------
 -------------------------------------------------------------------------------------
 
 SOLVING FOR HEAD 

 Outer-Iteration  Inner-Iteration  Backtracking  Number of        Incoming       Outgoing      Cutoff     Maximum Head Change      Maximum Head Change
     Number           Count           Flag       Backtracks       Residual       Residual      Residual            Value               Location
        1                             0             0          0.899072E-02     0.899072E-02   -1.00000    
        1               14                                                                                       0.203756E-03               3130           GWF-node number
        2                             0             0          0.386138E-06     0.386138E-06   -1.00000    
        2                6                                                                                       0.181100E-05               3044           GWF-node number
     2 CALLS TO SPARSE MATRIX SOLVER PACKAGE  IN FLOW TIME STEP      68 STRESS PERIOD       2

 TOTAL OF       2OUTER ITERATIONS
  MAXIMUM CHANGE FOR EACH ITERATION:
   MAX. CHANGE        NODE  MAX. CHANGE        NODE  MAX. CHANGE        NODE  MAX. CHANGE        NODE  MAX. CHANGE        NODE
 ------------------------------------------------------------------------------------------------------------------------------------
   0.20376E-03,       3130  0.18110E-05,       3044

 NO OUTPUT CONTROL FOR STRESS PERIOD        2   TIME STEP       68



          TIME SUMMARY AT END OF TIME STEP        68 IN STRESS PERIOD         2
                    SECONDS     MINUTES      HOURS       DAYS        YEARS
                    -----------------------------------------------------------
   TIME STEP LENGTH  86.400      1.4400     2.40000E-02 1.00000E-03 2.73785E-06
 STRESS PERIOD TIME  5875.2      97.920      1.6320     6.80000E-02 1.86174E-04
         TOTAL TIME  92275.      1537.9      25.632      1.0680     2.92402E-03
1
 ------------------------------------------------------------------------------------------------------------
 
 SOLVING FOR TRANSPORT 

          SEQUENTIAL TRANSPORT ITERATION LOOP NUMBER    1
          -----------------------------------------------

 ------------------------------------------------------------------------------------------------------------------------
     1 CALLS TO SPARSE MATRIX SOLVER PACKAGE IN TRANSPORT TIME STEP      68 STRESS PERIOD       2 SPECIES  1

 TOTAL OF       1OUTER ITERATIONS
  MAXIMUM CHANGE FOR EACH ITERATION:
   MAX. CHANGE        NODE  MAX. CHANGE        NODE  MAX. CHANGE        NODE  MAX. CHANGE        NODE  MAX. CHANGE        NODE
 ------------------------------------------------------------------------------------------------------------------------------------
  -0.87235    ,         80
     TRANSPORT SOLUTION COMPLETE FOR COMPONENT SPECIES NUMBER    1
     ------------------------------------------------------------

 TRANSPORT SOLUTION COMPLETE FOR ALL SPECIES, SORTING OUTPUT FOR CONCENTRATIONS AND MASS BALANCE
 ----------------------------------------------------------------------------------------------------
     TRANSPORT OUTPUT FOR COMPONENT SPECIES NUMBER    1
     ------------------------------------------------------------
 -------------------------------------------------------------------------------------
 
 SOLVING FOR HEAD 

 Outer-Iteration  Inner-Iteration  Backtracking  Number of        Incoming       Outgoing      Cutoff     Maximum Head Change      Maximum Head Change
     Number           Count           Flag       Backtracks       Residual       Residual      Residual            Value               Location
        1                             0             0          0.868496E-02     0.868496E-02   -1.00000    
        1               15                                                                                       0.203820E-03               3131           GWF-node number
        2                             0             0          0.583241E-06     0.583241E-06   -1.00000    
        2                2                                                                                       0.976938E-06               3125           GWF-node number
     2 CALLS TO SPARSE MATRIX SOLVER PACKAGE  IN FLOW TIME STEP      69 STRESS PERIOD       2

 TOTAL OF       2OUTER ITERATIONS
  MAXIMUM CHANGE FOR EACH ITERATION:
   MAX. CHANGE        NODE  MAX. CHANGE        NODE  MAX. CHANGE        NODE  MAX. CHANGE        NODE  MAX. CHANGE        NODE
 ------------------------------------------------------------------------------------------------------------------------------------
   0.20382E-03,       3131  0.97694E-06,       3125

 NO OUTPUT CONTROL FOR STRESS PERIOD        2   TIME STEP       69



          TIME SUMMARY AT END OF TIME STEP        69 IN STRESS PERIOD         2
                    SECONDS     MINUTES      HOURS       DAYS        YEARS
                    -----------------------------------------------------------
   TIME STEP LENGTH  86.400      1.4400     2.40000E-02 1.00000E-03 2.73785E-06
 STRESS PERIOD TIME  5961.6      99.360      1.6560     6.90000E-02 1.88912E-04
         TOTAL TIME  92362.      1539.4      25.656      1.0690     2.92676E-03
1
 ------------------------------------------------------------------------------------------------------------
 
 SOLVING FOR TRANSPORT 

          SEQUENTIAL TRANSPORT ITERATION LOOP NUMBER    1
          -----------------------------------------------

 ------------------------------------------------------------------------------------------------------------------------
     1 CALLS TO SPARSE MATRIX SOLVER PACKAGE IN TRANSPORT TIME STEP      69 STRESS PERIOD       2 SPECIES  1

 TOTAL OF       1OUTER ITERATIONS
  MAXIMUM CHANGE FOR EACH ITERATION:
   MAX. CHANGE        NODE  MAX. CHANGE        NODE  MAX. CHANGE        NODE  MAX. CHANGE        NODE  MAX. CHANGE        NODE
 ------------------------------------------------------------------------------------------------------------------------------------
  -0.82468    ,         80
     TRANSPORT SOLUTION COMPLETE FOR COMPONENT SPECIES NUMBER    1
     ------------------------------------------------------------

 TRANSPORT SOLUTION COMPLETE FOR ALL SPECIES, SORTING OUTPUT FOR CONCENTRATIONS AND MASS BALANCE
 ----------------------------------------------------------------------------------------------------
     TRANSPORT OUTPUT FOR COMPONENT SPECIES NUMBER    1
     ------------------------------------------------------------
 -------------------------------------------------------------------------------------
 
 SOLVING FOR HEAD 

 Outer-Iteration  Inner-Iteration  Backtracking  Number of        Incoming       Outgoing      Cutoff     Maximum Head Change      Maximum Head Change
     Number           Count           Flag       Backtracks       Residual       Residual      Residual            Value               Location
        1                             0             0          0.840378E-02     0.840378E-02   -1.00000    
        1               13                                                                                       0.209645E-03               3131           GWF-node number
        2                             0             0          0.590814E-06     0.590814E-06   -1.00000    
        2                1                                                                                      -0.835610E-06               3059           GWF-node number
     2 CALLS TO SPARSE MATRIX SOLVER PACKAGE  IN FLOW TIME STEP      70 STRESS PERIOD       2

 TOTAL OF       2OUTER ITERATIONS
  MAXIMUM CHANGE FOR EACH ITERATION:
   MAX. CHANGE        NODE  MAX. CHANGE        NODE  MAX. CHANGE        NODE  MAX. CHANGE        NODE  MAX. CHANGE        NODE
 ------------------------------------------------------------------------------------------------------------------------------------
   0.20964E-03,       3131 -0.83561E-06,       3059

 NO OUTPUT CONTROL FOR STRESS PERIOD        2   TIME STEP       70



          TIME SUMMARY AT END OF TIME STEP        70 IN STRESS PERIOD         2
                    SECONDS     MINUTES      HOURS       DAYS        YEARS
                    -----------------------------------------------------------
   TIME STEP LENGTH  86.400      1.4400     2.40000E-02 1.00000E-03 2.73785E-06
 STRESS PERIOD TIME  6048.0      100.80      1.6800     7.00000E-02 1.91650E-04
         TOTAL TIME  92448.      1540.8      25.680      1.0700     2.92950E-03
1
 ------------------------------------------------------------------------------------------------------------
 
 SOLVING FOR TRANSPORT 

          SEQUENTIAL TRANSPORT ITERATION LOOP NUMBER    1
          -----------------------------------------------

 ------------------------------------------------------------------------------------------------------------------------
     1 CALLS TO SPARSE MATRIX SOLVER PACKAGE IN TRANSPORT TIME STEP      70 STRESS PERIOD       2 SPECIES  1

 TOTAL OF       1OUTER ITERATIONS
  MAXIMUM CHANGE FOR EACH ITERATION:
   MAX. CHANGE        NODE  MAX. CHANGE        NODE  MAX. CHANGE        NODE  MAX. CHANGE        NODE  MAX. CHANGE        NODE
 ------------------------------------------------------------------------------------------------------------------------------------
  -0.77598    ,         80
     TRANSPORT SOLUTION COMPLETE FOR COMPONENT SPECIES NUMBER    1
     ------------------------------------------------------------

 TRANSPORT SOLUTION COMPLETE FOR ALL SPECIES, SORTING OUTPUT FOR CONCENTRATIONS AND MASS BALANCE
 ----------------------------------------------------------------------------------------------------
     TRANSPORT OUTPUT FOR COMPONENT SPECIES NUMBER    1
     ------------------------------------------------------------
 -------------------------------------------------------------------------------------
 
 SOLVING FOR HEAD 

 Outer-Iteration  Inner-Iteration  Backtracking  Number of        Incoming       Outgoing      Cutoff     Maximum Head Change      Maximum Head Change
     Number           Count           Flag       Backtracks       Residual       Residual      Residual            Value               Location
        1                             0             0          0.807808E-02     0.807808E-02   -1.00000    
        1               16                                                                                       0.211138E-03               3131           GWF-node number
        2                             0             0          0.284109E-06     0.284109E-06   -1.00000    
        2                3                                                                                       0.244729E-05               3125           GWF-node number
     2 CALLS TO SPARSE MATRIX SOLVER PACKAGE  IN FLOW TIME STEP      71 STRESS PERIOD       2

 TOTAL OF       2OUTER ITERATIONS
  MAXIMUM CHANGE FOR EACH ITERATION:
   MAX. CHANGE        NODE  MAX. CHANGE        NODE  MAX. CHANGE        NODE  MAX. CHANGE        NODE  MAX. CHANGE        NODE
 ------------------------------------------------------------------------------------------------------------------------------------
   0.21114E-03,       3131  0.24473E-05,       3125

 NO OUTPUT CONTROL FOR STRESS PERIOD        2   TIME STEP       71



          TIME SUMMARY AT END OF TIME STEP        71 IN STRESS PERIOD         2
                    SECONDS     MINUTES      HOURS       DAYS        YEARS
                    -----------------------------------------------------------
   TIME STEP LENGTH  86.400      1.4400     2.40000E-02 1.00000E-03 2.73785E-06
 STRESS PERIOD TIME  6134.4      102.24      1.7040     7.10000E-02 1.94387E-04
         TOTAL TIME  92534.      1542.2      25.704      1.0710     2.93224E-03
1
 ------------------------------------------------------------------------------------------------------------
 
 SOLVING FOR TRANSPORT 

          SEQUENTIAL TRANSPORT ITERATION LOOP NUMBER    1
          -----------------------------------------------

 ------------------------------------------------------------------------------------------------------------------------
     1 CALLS TO SPARSE MATRIX SOLVER PACKAGE IN TRANSPORT TIME STEP      71 STRESS PERIOD       2 SPECIES  1

 TOTAL OF       1OUTER ITERATIONS
  MAXIMUM CHANGE FOR EACH ITERATION:
   MAX. CHANGE        NODE  MAX. CHANGE        NODE  MAX. CHANGE        NODE  MAX. CHANGE        NODE  MAX. CHANGE        NODE
 ------------------------------------------------------------------------------------------------------------------------------------
  -0.73357    ,         80
     TRANSPORT SOLUTION COMPLETE FOR COMPONENT SPECIES NUMBER    1
     ------------------------------------------------------------

 TRANSPORT SOLUTION COMPLETE FOR ALL SPECIES, SORTING OUTPUT FOR CONCENTRATIONS AND MASS BALANCE
 ----------------------------------------------------------------------------------------------------
     TRANSPORT OUTPUT FOR COMPONENT SPECIES NUMBER    1
     ------------------------------------------------------------
 -------------------------------------------------------------------------------------
 
 SOLVING FOR HEAD 

 Outer-Iteration  Inner-Iteration  Backtracking  Number of        Incoming       Outgoing      Cutoff     Maximum Head Change      Maximum Head Change
     Number           Count           Flag       Backtracks       Residual       Residual      Residual            Value               Location
        1                             0             0          0.761111E-02     0.761111E-02   -1.00000    
        1               11                                                                                       0.211570E-03               3131           GWF-node number
        2                             0             0          0.630175E-05     0.630175E-05   -1.00000    
        2                5                                                                                      -0.212864E-05               3055           GWF-node number
     2 CALLS TO SPARSE MATRIX SOLVER PACKAGE  IN FLOW TIME STEP      72 STRESS PERIOD       2

 TOTAL OF       2OUTER ITERATIONS
  MAXIMUM CHANGE FOR EACH ITERATION:
   MAX. CHANGE        NODE  MAX. CHANGE        NODE  MAX. CHANGE        NODE  MAX. CHANGE        NODE  MAX. CHANGE        NODE
 ------------------------------------------------------------------------------------------------------------------------------------
   0.21157E-03,       3131 -0.21286E-05,       3055

 NO OUTPUT CONTROL FOR STRESS PERIOD        2   TIME STEP       72



          TIME SUMMARY AT END OF TIME STEP        72 IN STRESS PERIOD         2
                    SECONDS     MINUTES      HOURS       DAYS        YEARS
                    -----------------------------------------------------------
   TIME STEP LENGTH  86.400      1.4400     2.40000E-02 1.00000E-03 2.73785E-06
 STRESS PERIOD TIME  6220.8      103.68      1.7280     7.20000E-02 1.97125E-04
         TOTAL TIME  92621.      1543.7      25.728      1.0720     2.93498E-03
1
 ------------------------------------------------------------------------------------------------------------
 
 SOLVING FOR TRANSPORT 

          SEQUENTIAL TRANSPORT ITERATION LOOP NUMBER    1
          -----------------------------------------------

 ------------------------------------------------------------------------------------------------------------------------
     1 CALLS TO SPARSE MATRIX SOLVER PACKAGE IN TRANSPORT TIME STEP      72 STRESS PERIOD       2 SPECIES  1

 TOTAL OF       1OUTER ITERATIONS
  MAXIMUM CHANGE FOR EACH ITERATION:
   MAX. CHANGE        NODE  MAX. CHANGE        NODE  MAX. CHANGE        NODE  MAX. CHANGE        NODE  MAX. CHANGE        NODE
 ------------------------------------------------------------------------------------------------------------------------------------
  -0.68692    ,         80
     TRANSPORT SOLUTION COMPLETE FOR COMPONENT SPECIES NUMBER    1
     ------------------------------------------------------------

 TRANSPORT SOLUTION COMPLETE FOR ALL SPECIES, SORTING OUTPUT FOR CONCENTRATIONS AND MASS BALANCE
 ----------------------------------------------------------------------------------------------------
     TRANSPORT OUTPUT FOR COMPONENT SPECIES NUMBER    1
     ------------------------------------------------------------
 -------------------------------------------------------------------------------------
 
 SOLVING FOR HEAD 

 Outer-Iteration  Inner-Iteration  Backtracking  Number of        Incoming       Outgoing      Cutoff     Maximum Head Change      Maximum Head Change
     Number           Count           Flag       Backtracks       Residual       Residual      Residual            Value               Location
        1                             0             0          0.723557E-02     0.723557E-02   -1.00000    
        1               13                                                                                       0.209979E-03               3131           GWF-node number
        2                             0             0          0.172215E-05     0.172215E-05   -1.00000    
        2                3                                                                                       0.127467E-05                842           GWF-node number
     2 CALLS TO SPARSE MATRIX SOLVER PACKAGE  IN FLOW TIME STEP      73 STRESS PERIOD       2

 TOTAL OF       2OUTER ITERATIONS
  MAXIMUM CHANGE FOR EACH ITERATION:
   MAX. CHANGE        NODE  MAX. CHANGE        NODE  MAX. CHANGE        NODE  MAX. CHANGE        NODE  MAX. CHANGE        NODE
 ------------------------------------------------------------------------------------------------------------------------------------
   0.20998E-03,       3131  0.12747E-05,        842

 NO OUTPUT CONTROL FOR STRESS PERIOD        2   TIME STEP       73



          TIME SUMMARY AT END OF TIME STEP        73 IN STRESS PERIOD         2
                    SECONDS     MINUTES      HOURS       DAYS        YEARS
                    -----------------------------------------------------------
   TIME STEP LENGTH  86.400      1.4400     2.40000E-02 1.00000E-03 2.73785E-06
 STRESS PERIOD TIME  6307.2      105.12      1.7520     7.30000E-02 1.99863E-04
         TOTAL TIME  92707.      1545.1      25.752      1.0730     2.93771E-03
1
 ------------------------------------------------------------------------------------------------------------
 
 SOLVING FOR TRANSPORT 

          SEQUENTIAL TRANSPORT ITERATION LOOP NUMBER    1
          -----------------------------------------------

 ------------------------------------------------------------------------------------------------------------------------
     1 CALLS TO SPARSE MATRIX SOLVER PACKAGE IN TRANSPORT TIME STEP      73 STRESS PERIOD       2 SPECIES  1

 TOTAL OF       1OUTER ITERATIONS
  MAXIMUM CHANGE FOR EACH ITERATION:
   MAX. CHANGE        NODE  MAX. CHANGE        NODE  MAX. CHANGE        NODE  MAX. CHANGE        NODE  MAX. CHANGE        NODE
 ------------------------------------------------------------------------------------------------------------------------------------
  -0.64739    ,         80
     TRANSPORT SOLUTION COMPLETE FOR COMPONENT SPECIES NUMBER    1
     ------------------------------------------------------------

 TRANSPORT SOLUTION COMPLETE FOR ALL SPECIES, SORTING OUTPUT FOR CONCENTRATIONS AND MASS BALANCE
 ----------------------------------------------------------------------------------------------------
     TRANSPORT OUTPUT FOR COMPONENT SPECIES NUMBER    1
     ------------------------------------------------------------
 -------------------------------------------------------------------------------------
 
 SOLVING FOR HEAD 

 Outer-Iteration  Inner-Iteration  Backtracking  Number of        Incoming       Outgoing      Cutoff     Maximum Head Change      Maximum Head Change
     Number           Count           Flag       Backtracks       Residual       Residual      Residual            Value               Location
        1                             0             0          0.693210E-02     0.693210E-02   -1.00000    
        1               15                                                                                       0.209345E-03               3132           GWF-node number
        2                             0             0          0.408168E-06     0.408168E-06   -1.00000    
        2                3                                                                                       0.148603E-05               3045           GWF-node number
     2 CALLS TO SPARSE MATRIX SOLVER PACKAGE  IN FLOW TIME STEP      74 STRESS PERIOD       2

 TOTAL OF       2OUTER ITERATIONS
  MAXIMUM CHANGE FOR EACH ITERATION:
   MAX. CHANGE        NODE  MAX. CHANGE        NODE  MAX. CHANGE        NODE  MAX. CHANGE        NODE  MAX. CHANGE        NODE
 ------------------------------------------------------------------------------------------------------------------------------------
   0.20934E-03,       3132  0.14860E-05,       3045

 NO OUTPUT CONTROL FOR STRESS PERIOD        2   TIME STEP       74



          TIME SUMMARY AT END OF TIME STEP        74 IN STRESS PERIOD         2
                    SECONDS     MINUTES      HOURS       DAYS        YEARS
                    -----------------------------------------------------------
   TIME STEP LENGTH  86.400      1.4400     2.40000E-02 1.00000E-03 2.73785E-06
 STRESS PERIOD TIME  6393.6      106.56      1.7760     7.40000E-02 2.02601E-04
         TOTAL TIME  92794.      1546.6      25.776      1.0740     2.94045E-03
1
 ------------------------------------------------------------------------------------------------------------
 
 SOLVING FOR TRANSPORT 

          SEQUENTIAL TRANSPORT ITERATION LOOP NUMBER    1
          -----------------------------------------------

 ------------------------------------------------------------------------------------------------------------------------
     1 CALLS TO SPARSE MATRIX SOLVER PACKAGE IN TRANSPORT TIME STEP      74 STRESS PERIOD       2 SPECIES  1

 TOTAL OF       1OUTER ITERATIONS
  MAXIMUM CHANGE FOR EACH ITERATION:
   MAX. CHANGE        NODE  MAX. CHANGE        NODE  MAX. CHANGE        NODE  MAX. CHANGE        NODE  MAX. CHANGE        NODE
 ------------------------------------------------------------------------------------------------------------------------------------
  -0.60844    ,         80
     TRANSPORT SOLUTION COMPLETE FOR COMPONENT SPECIES NUMBER    1
     ------------------------------------------------------------

 TRANSPORT SOLUTION COMPLETE FOR ALL SPECIES, SORTING OUTPUT FOR CONCENTRATIONS AND MASS BALANCE
 ----------------------------------------------------------------------------------------------------
     TRANSPORT OUTPUT FOR COMPONENT SPECIES NUMBER    1
     ------------------------------------------------------------
 -------------------------------------------------------------------------------------
 
 SOLVING FOR HEAD 

 Outer-Iteration  Inner-Iteration  Backtracking  Number of        Incoming       Outgoing      Cutoff     Maximum Head Change      Maximum Head Change
     Number           Count           Flag       Backtracks       Residual       Residual      Residual            Value               Location
        1                             0             0          0.661121E-02     0.661121E-02   -1.00000    
        1               15                                                                                       0.211268E-03               3132           GWF-node number
        2                             0             0          0.289016E-06     0.289016E-06   -1.00000    
        2                2                                                                                       0.147264E-05               3125           GWF-node number
     2 CALLS TO SPARSE MATRIX SOLVER PACKAGE  IN FLOW TIME STEP      75 STRESS PERIOD       2

 TOTAL OF       2OUTER ITERATIONS
  MAXIMUM CHANGE FOR EACH ITERATION:
   MAX. CHANGE        NODE  MAX. CHANGE        NODE  MAX. CHANGE        NODE  MAX. CHANGE        NODE  MAX. CHANGE        NODE
 ------------------------------------------------------------------------------------------------------------------------------------
   0.21127E-03,       3132  0.14726E-05,       3125

 NO OUTPUT CONTROL FOR STRESS PERIOD        2   TIME STEP       75



          TIME SUMMARY AT END OF TIME STEP        75 IN STRESS PERIOD         2
                    SECONDS     MINUTES      HOURS       DAYS        YEARS
                    -----------------------------------------------------------
   TIME STEP LENGTH  86.400      1.4400     2.40000E-02 1.00000E-03 2.73785E-06
 STRESS PERIOD TIME  6480.0      108.00      1.8000     7.50000E-02 2.05339E-04
         TOTAL TIME  92880.      1548.0      25.800      1.0750     2.94319E-03
1
 ------------------------------------------------------------------------------------------------------------
 
 SOLVING FOR TRANSPORT 

          SEQUENTIAL TRANSPORT ITERATION LOOP NUMBER    1
          -----------------------------------------------

 ------------------------------------------------------------------------------------------------------------------------
     1 CALLS TO SPARSE MATRIX SOLVER PACKAGE IN TRANSPORT TIME STEP      75 STRESS PERIOD       2 SPECIES  1

 TOTAL OF       1OUTER ITERATIONS
  MAXIMUM CHANGE FOR EACH ITERATION:
   MAX. CHANGE        NODE  MAX. CHANGE        NODE  MAX. CHANGE        NODE  MAX. CHANGE        NODE  MAX. CHANGE        NODE
 ------------------------------------------------------------------------------------------------------------------------------------
  -0.57073    ,         80
     TRANSPORT SOLUTION COMPLETE FOR COMPONENT SPECIES NUMBER    1
     ------------------------------------------------------------

 TRANSPORT SOLUTION COMPLETE FOR ALL SPECIES, SORTING OUTPUT FOR CONCENTRATIONS AND MASS BALANCE
 ----------------------------------------------------------------------------------------------------
     TRANSPORT OUTPUT FOR COMPONENT SPECIES NUMBER    1
     ------------------------------------------------------------
 -------------------------------------------------------------------------------------
 
 SOLVING FOR HEAD 

 Outer-Iteration  Inner-Iteration  Backtracking  Number of        Incoming       Outgoing      Cutoff     Maximum Head Change      Maximum Head Change
     Number           Count           Flag       Backtracks       Residual       Residual      Residual            Value               Location
        1                             0             0          0.635956E-02     0.635956E-02   -1.00000    
        1               15                                                                                       0.212421E-03               3132           GWF-node number
        2                             0             0          0.264051E-06     0.264051E-06   -1.00000    
        2                2                                                                                       0.117036E-05               1846           GWF-node number
     2 CALLS TO SPARSE MATRIX SOLVER PACKAGE  IN FLOW TIME STEP      76 STRESS PERIOD       2

 TOTAL OF       2OUTER ITERATIONS
  MAXIMUM CHANGE FOR EACH ITERATION:
   MAX. CHANGE        NODE  MAX. CHANGE        NODE  MAX. CHANGE        NODE  MAX. CHANGE        NODE  MAX. CHANGE        NODE
 ------------------------------------------------------------------------------------------------------------------------------------
   0.21242E-03,       3132  0.11704E-05,       1846

 NO OUTPUT CONTROL FOR STRESS PERIOD        2   TIME STEP       76



          TIME SUMMARY AT END OF TIME STEP        76 IN STRESS PERIOD         2
                    SECONDS     MINUTES      HOURS       DAYS        YEARS
                    -----------------------------------------------------------
   TIME STEP LENGTH  86.400      1.4400     2.40000E-02 1.00000E-03 2.73785E-06
 STRESS PERIOD TIME  6566.4      109.44      1.8240     7.60000E-02 2.08077E-04
         TOTAL TIME  92966.      1549.4      25.824      1.0760     2.94593E-03
1
 ------------------------------------------------------------------------------------------------------------
 
 SOLVING FOR TRANSPORT 

          SEQUENTIAL TRANSPORT ITERATION LOOP NUMBER    1
          -----------------------------------------------

 ------------------------------------------------------------------------------------------------------------------------
     1 CALLS TO SPARSE MATRIX SOLVER PACKAGE IN TRANSPORT TIME STEP      76 STRESS PERIOD       2 SPECIES  1

 TOTAL OF       1OUTER ITERATIONS
  MAXIMUM CHANGE FOR EACH ITERATION:
   MAX. CHANGE        NODE  MAX. CHANGE        NODE  MAX. CHANGE        NODE  MAX. CHANGE        NODE  MAX. CHANGE        NODE
 ------------------------------------------------------------------------------------------------------------------------------------
  -0.53542    ,         80
     TRANSPORT SOLUTION COMPLETE FOR COMPONENT SPECIES NUMBER    1
     ------------------------------------------------------------

 TRANSPORT SOLUTION COMPLETE FOR ALL SPECIES, SORTING OUTPUT FOR CONCENTRATIONS AND MASS BALANCE
 ----------------------------------------------------------------------------------------------------
     TRANSPORT OUTPUT FOR COMPONENT SPECIES NUMBER    1
     ------------------------------------------------------------
 -------------------------------------------------------------------------------------
 
 SOLVING FOR HEAD 

 Outer-Iteration  Inner-Iteration  Backtracking  Number of        Incoming       Outgoing      Cutoff     Maximum Head Change      Maximum Head Change
     Number           Count           Flag       Backtracks       Residual       Residual      Residual            Value               Location
        1                             0             0          0.613946E-02     0.613946E-02   -1.00000    
        1               14                                                                                       0.212392E-03               3132           GWF-node number
        2                             0             0          0.259863E-06     0.259863E-06   -1.00000    
        2                5                                                                                       0.177523E-05               3125           GWF-node number
     2 CALLS TO SPARSE MATRIX SOLVER PACKAGE  IN FLOW TIME STEP      77 STRESS PERIOD       2

 TOTAL OF       2OUTER ITERATIONS
  MAXIMUM CHANGE FOR EACH ITERATION:
   MAX. CHANGE        NODE  MAX. CHANGE        NODE  MAX. CHANGE        NODE  MAX. CHANGE        NODE  MAX. CHANGE        NODE
 ------------------------------------------------------------------------------------------------------------------------------------
   0.21239E-03,       3132  0.17752E-05,       3125

 NO OUTPUT CONTROL FOR STRESS PERIOD        2   TIME STEP       77



          TIME SUMMARY AT END OF TIME STEP        77 IN STRESS PERIOD         2
                    SECONDS     MINUTES      HOURS       DAYS        YEARS
                    -----------------------------------------------------------
   TIME STEP LENGTH  86.400      1.4400     2.40000E-02 1.00000E-03 2.73785E-06
 STRESS PERIOD TIME  6652.8      110.88      1.8480     7.70000E-02 2.10815E-04
         TOTAL TIME  93053.      1550.9      25.848      1.0770     2.94867E-03
1
 ------------------------------------------------------------------------------------------------------------
 
 SOLVING FOR TRANSPORT 

          SEQUENTIAL TRANSPORT ITERATION LOOP NUMBER    1
          -----------------------------------------------

 ------------------------------------------------------------------------------------------------------------------------
     1 CALLS TO SPARSE MATRIX SOLVER PACKAGE IN TRANSPORT TIME STEP      77 STRESS PERIOD       2 SPECIES  1

 TOTAL OF       1OUTER ITERATIONS
  MAXIMUM CHANGE FOR EACH ITERATION:
   MAX. CHANGE        NODE  MAX. CHANGE        NODE  MAX. CHANGE        NODE  MAX. CHANGE        NODE  MAX. CHANGE        NODE
 ------------------------------------------------------------------------------------------------------------------------------------
  -0.50279    ,         80
     TRANSPORT SOLUTION COMPLETE FOR COMPONENT SPECIES NUMBER    1
     ------------------------------------------------------------

 TRANSPORT SOLUTION COMPLETE FOR ALL SPECIES, SORTING OUTPUT FOR CONCENTRATIONS AND MASS BALANCE
 ----------------------------------------------------------------------------------------------------
     TRANSPORT OUTPUT FOR COMPONENT SPECIES NUMBER    1
     ------------------------------------------------------------
 -------------------------------------------------------------------------------------
 
 SOLVING FOR HEAD 

 Outer-Iteration  Inner-Iteration  Backtracking  Number of        Incoming       Outgoing      Cutoff     Maximum Head Change      Maximum Head Change
     Number           Count           Flag       Backtracks       Residual       Residual      Residual            Value               Location
        1                             0             0          0.580974E-02     0.580974E-02   -1.00000    
        1               17                                                                                       0.211087E-03               3132           GWF-node number
        2                             0             0          0.216438E-06     0.216438E-06   -1.00000    
        2                3                                                                                       0.156403E-05               3126           GWF-node number
     2 CALLS TO SPARSE MATRIX SOLVER PACKAGE  IN FLOW TIME STEP      78 STRESS PERIOD       2

 TOTAL OF       2OUTER ITERATIONS
  MAXIMUM CHANGE FOR EACH ITERATION:
   MAX. CHANGE        NODE  MAX. CHANGE        NODE  MAX. CHANGE        NODE  MAX. CHANGE        NODE  MAX. CHANGE        NODE
 ------------------------------------------------------------------------------------------------------------------------------------
   0.21109E-03,       3132  0.15640E-05,       3126

 NO OUTPUT CONTROL FOR STRESS PERIOD        2   TIME STEP       78



          TIME SUMMARY AT END OF TIME STEP        78 IN STRESS PERIOD         2
                    SECONDS     MINUTES      HOURS       DAYS        YEARS
                    -----------------------------------------------------------
   TIME STEP LENGTH  86.400      1.4400     2.40000E-02 1.00000E-03 2.73785E-06
 STRESS PERIOD TIME  6739.2      112.32      1.8720     7.80000E-02 2.13552E-04
         TOTAL TIME  93139.      1552.3      25.872      1.0780     2.95140E-03
1
 ------------------------------------------------------------------------------------------------------------
 
 SOLVING FOR TRANSPORT 

          SEQUENTIAL TRANSPORT ITERATION LOOP NUMBER    1
          -----------------------------------------------

 ------------------------------------------------------------------------------------------------------------------------
     1 CALLS TO SPARSE MATRIX SOLVER PACKAGE IN TRANSPORT TIME STEP      78 STRESS PERIOD       2 SPECIES  1

 TOTAL OF       1OUTER ITERATIONS
  MAXIMUM CHANGE FOR EACH ITERATION:
   MAX. CHANGE        NODE  MAX. CHANGE        NODE  MAX. CHANGE        NODE  MAX. CHANGE        NODE  MAX. CHANGE        NODE
 ------------------------------------------------------------------------------------------------------------------------------------
  -0.47197    ,         80
     TRANSPORT SOLUTION COMPLETE FOR COMPONENT SPECIES NUMBER    1
     ------------------------------------------------------------

 TRANSPORT SOLUTION COMPLETE FOR ALL SPECIES, SORTING OUTPUT FOR CONCENTRATIONS AND MASS BALANCE
 ----------------------------------------------------------------------------------------------------
     TRANSPORT OUTPUT FOR COMPONENT SPECIES NUMBER    1
     ------------------------------------------------------------
 -------------------------------------------------------------------------------------
 
 SOLVING FOR HEAD 

 Outer-Iteration  Inner-Iteration  Backtracking  Number of        Incoming       Outgoing      Cutoff     Maximum Head Change      Maximum Head Change
     Number           Count           Flag       Backtracks       Residual       Residual      Residual            Value               Location
        1                             0             0          0.554588E-02     0.554588E-02   -1.00000    
        1               15                                                                                       0.213353E-03               3132           GWF-node number
        2                             0             0          0.232763E-06     0.232763E-06   -1.00000    
        2                3                                                                                       0.134534E-05               3126           GWF-node number
     2 CALLS TO SPARSE MATRIX SOLVER PACKAGE  IN FLOW TIME STEP      79 STRESS PERIOD       2

 TOTAL OF       2OUTER ITERATIONS
  MAXIMUM CHANGE FOR EACH ITERATION:
   MAX. CHANGE        NODE  MAX. CHANGE        NODE  MAX. CHANGE        NODE  MAX. CHANGE        NODE  MAX. CHANGE        NODE
 ------------------------------------------------------------------------------------------------------------------------------------
   0.21335E-03,       3132  0.13453E-05,       3126

 NO OUTPUT CONTROL FOR STRESS PERIOD        2   TIME STEP       79



          TIME SUMMARY AT END OF TIME STEP        79 IN STRESS PERIOD         2
                    SECONDS     MINUTES      HOURS       DAYS        YEARS
                    -----------------------------------------------------------
   TIME STEP LENGTH  86.400      1.4400     2.40000E-02 1.00000E-03 2.73785E-06
 STRESS PERIOD TIME  6825.6      113.76      1.8960     7.90000E-02 2.16290E-04
         TOTAL TIME  93226.      1553.8      25.896      1.0790     2.95414E-03
1
 ------------------------------------------------------------------------------------------------------------
 
 SOLVING FOR TRANSPORT 

          SEQUENTIAL TRANSPORT ITERATION LOOP NUMBER    1
          -----------------------------------------------

 ------------------------------------------------------------------------------------------------------------------------
     1 CALLS TO SPARSE MATRIX SOLVER PACKAGE IN TRANSPORT TIME STEP      79 STRESS PERIOD       2 SPECIES  1

 TOTAL OF       1OUTER ITERATIONS
  MAXIMUM CHANGE FOR EACH ITERATION:
   MAX. CHANGE        NODE  MAX. CHANGE        NODE  MAX. CHANGE        NODE  MAX. CHANGE        NODE  MAX. CHANGE        NODE
 ------------------------------------------------------------------------------------------------------------------------------------
  -0.44336    ,         80
     TRANSPORT SOLUTION COMPLETE FOR COMPONENT SPECIES NUMBER    1
     ------------------------------------------------------------

 TRANSPORT SOLUTION COMPLETE FOR ALL SPECIES, SORTING OUTPUT FOR CONCENTRATIONS AND MASS BALANCE
 ----------------------------------------------------------------------------------------------------
     TRANSPORT OUTPUT FOR COMPONENT SPECIES NUMBER    1
     ------------------------------------------------------------
 -------------------------------------------------------------------------------------
 
 SOLVING FOR HEAD 

 Outer-Iteration  Inner-Iteration  Backtracking  Number of        Incoming       Outgoing      Cutoff     Maximum Head Change      Maximum Head Change
     Number           Count           Flag       Backtracks       Residual       Residual      Residual            Value               Location
        1                             0             0          0.535124E-02     0.535124E-02   -1.00000    
        1               15                                                                                       0.213692E-03               3133           GWF-node number
        2                             0             0          0.243840E-06     0.243840E-06   -1.00000    
        2                3                                                                                       0.133321E-05               3046           GWF-node number
     2 CALLS TO SPARSE MATRIX SOLVER PACKAGE  IN FLOW TIME STEP      80 STRESS PERIOD       2

 TOTAL OF       2OUTER ITERATIONS
  MAXIMUM CHANGE FOR EACH ITERATION:
   MAX. CHANGE        NODE  MAX. CHANGE        NODE  MAX. CHANGE        NODE  MAX. CHANGE        NODE  MAX. CHANGE        NODE
 ------------------------------------------------------------------------------------------------------------------------------------
   0.21369E-03,       3133  0.13332E-05,       3046

 NO OUTPUT CONTROL FOR STRESS PERIOD        2   TIME STEP       80



          TIME SUMMARY AT END OF TIME STEP        80 IN STRESS PERIOD         2
                    SECONDS     MINUTES      HOURS       DAYS        YEARS
                    -----------------------------------------------------------
   TIME STEP LENGTH  86.400      1.4400     2.40000E-02 1.00000E-03 2.73785E-06
 STRESS PERIOD TIME  6912.0      115.20      1.9200     8.00000E-02 2.19028E-04
         TOTAL TIME  93312.      1555.2      25.920      1.0800     2.95688E-03
1
 ------------------------------------------------------------------------------------------------------------
 
 SOLVING FOR TRANSPORT 

          SEQUENTIAL TRANSPORT ITERATION LOOP NUMBER    1
          -----------------------------------------------

 ------------------------------------------------------------------------------------------------------------------------
     1 CALLS TO SPARSE MATRIX SOLVER PACKAGE IN TRANSPORT TIME STEP      80 STRESS PERIOD       2 SPECIES  1

 TOTAL OF       1OUTER ITERATIONS
  MAXIMUM CHANGE FOR EACH ITERATION:
   MAX. CHANGE        NODE  MAX. CHANGE        NODE  MAX. CHANGE        NODE  MAX. CHANGE        NODE  MAX. CHANGE        NODE
 ------------------------------------------------------------------------------------------------------------------------------------
  -0.41672    ,         80
     TRANSPORT SOLUTION COMPLETE FOR COMPONENT SPECIES NUMBER    1
     ------------------------------------------------------------

 TRANSPORT SOLUTION COMPLETE FOR ALL SPECIES, SORTING OUTPUT FOR CONCENTRATIONS AND MASS BALANCE
 ----------------------------------------------------------------------------------------------------
     TRANSPORT OUTPUT FOR COMPONENT SPECIES NUMBER    1
     ------------------------------------------------------------
 -------------------------------------------------------------------------------------
 
 SOLVING FOR HEAD 

 Outer-Iteration  Inner-Iteration  Backtracking  Number of        Incoming       Outgoing      Cutoff     Maximum Head Change      Maximum Head Change
     Number           Count           Flag       Backtracks       Residual       Residual      Residual            Value               Location
        1                             0             0          0.510298E-02     0.510298E-02   -1.00000    
        1               14                                                                                       0.214181E-03               3133           GWF-node number
        2                             0             0          0.241471E-06     0.241471E-06   -1.00000    
        2                4                                                                                      -0.127593E-05               3147           GWF-node number
     2 CALLS TO SPARSE MATRIX SOLVER PACKAGE  IN FLOW TIME STEP      81 STRESS PERIOD       2

 TOTAL OF       2OUTER ITERATIONS
  MAXIMUM CHANGE FOR EACH ITERATION:
   MAX. CHANGE        NODE  MAX. CHANGE        NODE  MAX. CHANGE        NODE  MAX. CHANGE        NODE  MAX. CHANGE        NODE
 ------------------------------------------------------------------------------------------------------------------------------------
   0.21418E-03,       3133 -0.12759E-05,       3147

 NO OUTPUT CONTROL FOR STRESS PERIOD        2   TIME STEP       81



          TIME SUMMARY AT END OF TIME STEP        81 IN STRESS PERIOD         2
                    SECONDS     MINUTES      HOURS       DAYS        YEARS
                    -----------------------------------------------------------
   TIME STEP LENGTH  86.400      1.4400     2.40000E-02 1.00000E-03 2.73785E-06
 STRESS PERIOD TIME  6998.4      116.64      1.9440     8.10000E-02 2.21766E-04
         TOTAL TIME  93398.      1556.6      25.944      1.0810     2.95962E-03
1
 ------------------------------------------------------------------------------------------------------------
 
 SOLVING FOR TRANSPORT 

          SEQUENTIAL TRANSPORT ITERATION LOOP NUMBER    1
          -----------------------------------------------

 ------------------------------------------------------------------------------------------------------------------------
     1 CALLS TO SPARSE MATRIX SOLVER PACKAGE IN TRANSPORT TIME STEP      81 STRESS PERIOD       2 SPECIES  1

 TOTAL OF       1OUTER ITERATIONS
  MAXIMUM CHANGE FOR EACH ITERATION:
   MAX. CHANGE        NODE  MAX. CHANGE        NODE  MAX. CHANGE        NODE  MAX. CHANGE        NODE  MAX. CHANGE        NODE
 ------------------------------------------------------------------------------------------------------------------------------------
  -0.41347    ,       3134
     TRANSPORT SOLUTION COMPLETE FOR COMPONENT SPECIES NUMBER    1
     ------------------------------------------------------------

 TRANSPORT SOLUTION COMPLETE FOR ALL SPECIES, SORTING OUTPUT FOR CONCENTRATIONS AND MASS BALANCE
 ----------------------------------------------------------------------------------------------------
     TRANSPORT OUTPUT FOR COMPONENT SPECIES NUMBER    1
     ------------------------------------------------------------
 -------------------------------------------------------------------------------------
 
 SOLVING FOR HEAD 

 Outer-Iteration  Inner-Iteration  Backtracking  Number of        Incoming       Outgoing      Cutoff     Maximum Head Change      Maximum Head Change
     Number           Count           Flag       Backtracks       Residual       Residual      Residual            Value               Location
        1                             0             0          0.496723E-02     0.496723E-02   -1.00000    
        1               13                                                                                       0.215859E-03               3133           GWF-node number
        2                             0             0          0.617074E-06     0.617074E-06   -1.00000    
        2                3                                                                                       0.127044E-05               3046           GWF-node number
     2 CALLS TO SPARSE MATRIX SOLVER PACKAGE  IN FLOW TIME STEP      82 STRESS PERIOD       2

 TOTAL OF       2OUTER ITERATIONS
  MAXIMUM CHANGE FOR EACH ITERATION:
   MAX. CHANGE        NODE  MAX. CHANGE        NODE  MAX. CHANGE        NODE  MAX. CHANGE        NODE  MAX. CHANGE        NODE
 ------------------------------------------------------------------------------------------------------------------------------------
   0.21586E-03,       3133  0.12704E-05,       3046

 NO OUTPUT CONTROL FOR STRESS PERIOD        2   TIME STEP       82



          TIME SUMMARY AT END OF TIME STEP        82 IN STRESS PERIOD         2
                    SECONDS     MINUTES      HOURS       DAYS        YEARS
                    -----------------------------------------------------------
   TIME STEP LENGTH  86.400      1.4400     2.40000E-02 1.00000E-03 2.73785E-06
 STRESS PERIOD TIME  7084.8      118.08      1.9680     8.20000E-02 2.24504E-04
         TOTAL TIME  93485.      1558.1      25.968      1.0820     2.96235E-03
1
 ------------------------------------------------------------------------------------------------------------
 
 SOLVING FOR TRANSPORT 

          SEQUENTIAL TRANSPORT ITERATION LOOP NUMBER    1
          -----------------------------------------------

 ------------------------------------------------------------------------------------------------------------------------
     1 CALLS TO SPARSE MATRIX SOLVER PACKAGE IN TRANSPORT TIME STEP      82 STRESS PERIOD       2 SPECIES  1

 TOTAL OF       1OUTER ITERATIONS
  MAXIMUM CHANGE FOR EACH ITERATION:
   MAX. CHANGE        NODE  MAX. CHANGE        NODE  MAX. CHANGE        NODE  MAX. CHANGE        NODE  MAX. CHANGE        NODE
 ------------------------------------------------------------------------------------------------------------------------------------
  -0.41074    ,       3134
     TRANSPORT SOLUTION COMPLETE FOR COMPONENT SPECIES NUMBER    1
     ------------------------------------------------------------

 TRANSPORT SOLUTION COMPLETE FOR ALL SPECIES, SORTING OUTPUT FOR CONCENTRATIONS AND MASS BALANCE
 ----------------------------------------------------------------------------------------------------
     TRANSPORT OUTPUT FOR COMPONENT SPECIES NUMBER    1
     ------------------------------------------------------------
 -------------------------------------------------------------------------------------
 
 SOLVING FOR HEAD 

 Outer-Iteration  Inner-Iteration  Backtracking  Number of        Incoming       Outgoing      Cutoff     Maximum Head Change      Maximum Head Change
     Number           Count           Flag       Backtracks       Residual       Residual      Residual            Value               Location
        1                             0             0          0.475126E-02     0.475126E-02   -1.00000    
        1               13                                                                                       0.215103E-03               3133           GWF-node number
        2                             0             0          0.361560E-06     0.361560E-06   -1.00000    
        2                1                                                                                      -0.762325E-06               3143           GWF-node number
     2 CALLS TO SPARSE MATRIX SOLVER PACKAGE  IN FLOW TIME STEP      83 STRESS PERIOD       2

 TOTAL OF       2OUTER ITERATIONS
  MAXIMUM CHANGE FOR EACH ITERATION:
   MAX. CHANGE        NODE  MAX. CHANGE        NODE  MAX. CHANGE        NODE  MAX. CHANGE        NODE  MAX. CHANGE        NODE
 ------------------------------------------------------------------------------------------------------------------------------------
   0.21510E-03,       3133 -0.76232E-06,       3143

 NO OUTPUT CONTROL FOR STRESS PERIOD        2   TIME STEP       83



          TIME SUMMARY AT END OF TIME STEP        83 IN STRESS PERIOD         2
                    SECONDS     MINUTES      HOURS       DAYS        YEARS
                    -----------------------------------------------------------
   TIME STEP LENGTH  86.400      1.4400     2.40000E-02 1.00000E-03 2.73785E-06
 STRESS PERIOD TIME  7171.2      119.52      1.9920     8.30000E-02 2.27242E-04
         TOTAL TIME  93571.      1559.5      25.992      1.0830     2.96509E-03
1
 ------------------------------------------------------------------------------------------------------------
 
 SOLVING FOR TRANSPORT 

          SEQUENTIAL TRANSPORT ITERATION LOOP NUMBER    1
          -----------------------------------------------

 ------------------------------------------------------------------------------------------------------------------------
     1 CALLS TO SPARSE MATRIX SOLVER PACKAGE IN TRANSPORT TIME STEP      83 STRESS PERIOD       2 SPECIES  1

 TOTAL OF       1OUTER ITERATIONS
  MAXIMUM CHANGE FOR EACH ITERATION:
   MAX. CHANGE        NODE  MAX. CHANGE        NODE  MAX. CHANGE        NODE  MAX. CHANGE        NODE  MAX. CHANGE        NODE
 ------------------------------------------------------------------------------------------------------------------------------------
  -0.40965    ,       3134
     TRANSPORT SOLUTION COMPLETE FOR COMPONENT SPECIES NUMBER    1
     ------------------------------------------------------------

 TRANSPORT SOLUTION COMPLETE FOR ALL SPECIES, SORTING OUTPUT FOR CONCENTRATIONS AND MASS BALANCE
 ----------------------------------------------------------------------------------------------------
     TRANSPORT OUTPUT FOR COMPONENT SPECIES NUMBER    1
     ------------------------------------------------------------
 -------------------------------------------------------------------------------------
 
 SOLVING FOR HEAD 

 Outer-Iteration  Inner-Iteration  Backtracking  Number of        Incoming       Outgoing      Cutoff     Maximum Head Change      Maximum Head Change
     Number           Count           Flag       Backtracks       Residual       Residual      Residual            Value               Location
        1                             0             0          0.453492E-02     0.453492E-02   -1.00000    
        1               12                                                                                       0.208019E-03               3133           GWF-node number
        2                             0             0          0.122979E-04     0.122979E-04   -1.00000    
        2                4                                                                                       0.790211E-05               2961           GWF-node number
     2 CALLS TO SPARSE MATRIX SOLVER PACKAGE  IN FLOW TIME STEP      84 STRESS PERIOD       2

 TOTAL OF       2OUTER ITERATIONS
  MAXIMUM CHANGE FOR EACH ITERATION:
   MAX. CHANGE        NODE  MAX. CHANGE        NODE  MAX. CHANGE        NODE  MAX. CHANGE        NODE  MAX. CHANGE        NODE
 ------------------------------------------------------------------------------------------------------------------------------------
   0.20802E-03,       3133  0.79021E-05,       2961

 NO OUTPUT CONTROL FOR STRESS PERIOD        2   TIME STEP       84



          TIME SUMMARY AT END OF TIME STEP        84 IN STRESS PERIOD         2
                    SECONDS     MINUTES      HOURS       DAYS        YEARS
                    -----------------------------------------------------------
   TIME STEP LENGTH  86.400      1.4400     2.40000E-02 1.00000E-03 2.73785E-06
 STRESS PERIOD TIME  7257.6      120.96      2.0160     8.40000E-02 2.29979E-04
         TOTAL TIME  93658.      1561.0      26.016      1.0840     2.96783E-03
1
 ------------------------------------------------------------------------------------------------------------
 
 SOLVING FOR TRANSPORT 

          SEQUENTIAL TRANSPORT ITERATION LOOP NUMBER    1
          -----------------------------------------------

 ------------------------------------------------------------------------------------------------------------------------
     1 CALLS TO SPARSE MATRIX SOLVER PACKAGE IN TRANSPORT TIME STEP      84 STRESS PERIOD       2 SPECIES  1

 TOTAL OF       1OUTER ITERATIONS
  MAXIMUM CHANGE FOR EACH ITERATION:
   MAX. CHANGE        NODE  MAX. CHANGE        NODE  MAX. CHANGE        NODE  MAX. CHANGE        NODE  MAX. CHANGE        NODE
 ------------------------------------------------------------------------------------------------------------------------------------
  -0.40582    ,       3134
     TRANSPORT SOLUTION COMPLETE FOR COMPONENT SPECIES NUMBER    1
     ------------------------------------------------------------

 TRANSPORT SOLUTION COMPLETE FOR ALL SPECIES, SORTING OUTPUT FOR CONCENTRATIONS AND MASS BALANCE
 ----------------------------------------------------------------------------------------------------
     TRANSPORT OUTPUT FOR COMPONENT SPECIES NUMBER    1
     ------------------------------------------------------------
 -------------------------------------------------------------------------------------
 
 SOLVING FOR HEAD 

 Outer-Iteration  Inner-Iteration  Backtracking  Number of        Incoming       Outgoing      Cutoff     Maximum Head Change      Maximum Head Change
     Number           Count           Flag       Backtracks       Residual       Residual      Residual            Value               Location
        1                             0             0          0.466666E-02     0.466666E-02   -1.00000    
        1               13                                                                                       0.218115E-03               3133           GWF-node number
        2                             0             0          0.399355E-06     0.399355E-06   -1.00000    
        2                2                                                                                       0.159516E-05               2966           GWF-node number
     2 CALLS TO SPARSE MATRIX SOLVER PACKAGE  IN FLOW TIME STEP      85 STRESS PERIOD       2

 TOTAL OF       2OUTER ITERATIONS
  MAXIMUM CHANGE FOR EACH ITERATION:
   MAX. CHANGE        NODE  MAX. CHANGE        NODE  MAX. CHANGE        NODE  MAX. CHANGE        NODE  MAX. CHANGE        NODE
 ------------------------------------------------------------------------------------------------------------------------------------
   0.21812E-03,       3133  0.15952E-05,       2966

 NO OUTPUT CONTROL FOR STRESS PERIOD        2   TIME STEP       85



          TIME SUMMARY AT END OF TIME STEP        85 IN STRESS PERIOD         2
                    SECONDS     MINUTES      HOURS       DAYS        YEARS
                    -----------------------------------------------------------
   TIME STEP LENGTH  86.400      1.4400     2.40000E-02 1.00000E-03 2.73785E-06
 STRESS PERIOD TIME  7344.0      122.40      2.0400     8.50000E-02 2.32717E-04
         TOTAL TIME  93744.      1562.4      26.040      1.0850     2.97057E-03
1
 ------------------------------------------------------------------------------------------------------------
 
 SOLVING FOR TRANSPORT 

          SEQUENTIAL TRANSPORT ITERATION LOOP NUMBER    1
          -----------------------------------------------

 ------------------------------------------------------------------------------------------------------------------------
     1 CALLS TO SPARSE MATRIX SOLVER PACKAGE IN TRANSPORT TIME STEP      85 STRESS PERIOD       2 SPECIES  1

 TOTAL OF       1OUTER ITERATIONS
  MAXIMUM CHANGE FOR EACH ITERATION:
   MAX. CHANGE        NODE  MAX. CHANGE        NODE  MAX. CHANGE        NODE  MAX. CHANGE        NODE  MAX. CHANGE        NODE
 ------------------------------------------------------------------------------------------------------------------------------------
  -0.40349    ,       3135
     TRANSPORT SOLUTION COMPLETE FOR COMPONENT SPECIES NUMBER    1
     ------------------------------------------------------------

 TRANSPORT SOLUTION COMPLETE FOR ALL SPECIES, SORTING OUTPUT FOR CONCENTRATIONS AND MASS BALANCE
 ----------------------------------------------------------------------------------------------------
     TRANSPORT OUTPUT FOR COMPONENT SPECIES NUMBER    1
     ------------------------------------------------------------
 -------------------------------------------------------------------------------------
 
 SOLVING FOR HEAD 

 Outer-Iteration  Inner-Iteration  Backtracking  Number of        Incoming       Outgoing      Cutoff     Maximum Head Change      Maximum Head Change
     Number           Count           Flag       Backtracks       Residual       Residual      Residual            Value               Location
        1                             0             0          0.429118E-02     0.429118E-02   -1.00000    
        1               14                                                                                       0.213823E-03               3134           GWF-node number
        2                             0             0          0.376641E-06     0.376641E-06   -1.00000    
        2                3                                                                                       0.128492E-05               3047           GWF-node number
     2 CALLS TO SPARSE MATRIX SOLVER PACKAGE  IN FLOW TIME STEP      86 STRESS PERIOD       2

 TOTAL OF       2OUTER ITERATIONS
  MAXIMUM CHANGE FOR EACH ITERATION:
   MAX. CHANGE        NODE  MAX. CHANGE        NODE  MAX. CHANGE        NODE  MAX. CHANGE        NODE  MAX. CHANGE        NODE
 ------------------------------------------------------------------------------------------------------------------------------------
   0.21382E-03,       3134  0.12849E-05,       3047

 NO OUTPUT CONTROL FOR STRESS PERIOD        2   TIME STEP       86



          TIME SUMMARY AT END OF TIME STEP        86 IN STRESS PERIOD         2
                    SECONDS     MINUTES      HOURS       DAYS        YEARS
                    -----------------------------------------------------------
   TIME STEP LENGTH  86.400      1.4400     2.40000E-02 1.00000E-03 2.73785E-06
 STRESS PERIOD TIME  7430.4      123.84      2.0640     8.60000E-02 2.35455E-04
         TOTAL TIME  93830.      1563.8      26.064      1.0860     2.97331E-03
1
 ------------------------------------------------------------------------------------------------------------
 
 SOLVING FOR TRANSPORT 

          SEQUENTIAL TRANSPORT ITERATION LOOP NUMBER    1
          -----------------------------------------------

 ------------------------------------------------------------------------------------------------------------------------
     1 CALLS TO SPARSE MATRIX SOLVER PACKAGE IN TRANSPORT TIME STEP      86 STRESS PERIOD       2 SPECIES  1

 TOTAL OF       1OUTER ITERATIONS
  MAXIMUM CHANGE FOR EACH ITERATION:
   MAX. CHANGE        NODE  MAX. CHANGE        NODE  MAX. CHANGE        NODE  MAX. CHANGE        NODE  MAX. CHANGE        NODE
 ------------------------------------------------------------------------------------------------------------------------------------
  -0.40225    ,       3134
     TRANSPORT SOLUTION COMPLETE FOR COMPONENT SPECIES NUMBER    1
     ------------------------------------------------------------

 TRANSPORT SOLUTION COMPLETE FOR ALL SPECIES, SORTING OUTPUT FOR CONCENTRATIONS AND MASS BALANCE
 ----------------------------------------------------------------------------------------------------
     TRANSPORT OUTPUT FOR COMPONENT SPECIES NUMBER    1
     ------------------------------------------------------------
 -------------------------------------------------------------------------------------
 
 SOLVING FOR HEAD 

 Outer-Iteration  Inner-Iteration  Backtracking  Number of        Incoming       Outgoing      Cutoff     Maximum Head Change      Maximum Head Change
     Number           Count           Flag       Backtracks       Residual       Residual      Residual            Value               Location
        1                             0             0          0.404017E-02     0.404017E-02   -1.00000    
        1               13                                                                                       0.216767E-03               3134           GWF-node number
        2                             0             0          0.525723E-06     0.525723E-06   -1.00000    
        2                1                                                                                       0.861654E-06               2961           GWF-node number
     2 CALLS TO SPARSE MATRIX SOLVER PACKAGE  IN FLOW TIME STEP      87 STRESS PERIOD       2

 TOTAL OF       2OUTER ITERATIONS
  MAXIMUM CHANGE FOR EACH ITERATION:
   MAX. CHANGE        NODE  MAX. CHANGE        NODE  MAX. CHANGE        NODE  MAX. CHANGE        NODE  MAX. CHANGE        NODE
 ------------------------------------------------------------------------------------------------------------------------------------
   0.21677E-03,       3134  0.86165E-06,       2961

 NO OUTPUT CONTROL FOR STRESS PERIOD        2   TIME STEP       87



          TIME SUMMARY AT END OF TIME STEP        87 IN STRESS PERIOD         2
                    SECONDS     MINUTES      HOURS       DAYS        YEARS
                    -----------------------------------------------------------
   TIME STEP LENGTH  86.400      1.4400     2.40000E-02 1.00000E-03 2.73785E-06
 STRESS PERIOD TIME  7516.8      125.28      2.0880     8.70000E-02 2.38193E-04
         TOTAL TIME  93917.      1565.3      26.088      1.0870     2.97604E-03
1
 ------------------------------------------------------------------------------------------------------------
 
 SOLVING FOR TRANSPORT 

          SEQUENTIAL TRANSPORT ITERATION LOOP NUMBER    1
          -----------------------------------------------

 ------------------------------------------------------------------------------------------------------------------------
     1 CALLS TO SPARSE MATRIX SOLVER PACKAGE IN TRANSPORT TIME STEP      87 STRESS PERIOD       2 SPECIES  1

 TOTAL OF       1OUTER ITERATIONS
  MAXIMUM CHANGE FOR EACH ITERATION:
   MAX. CHANGE        NODE  MAX. CHANGE        NODE  MAX. CHANGE        NODE  MAX. CHANGE        NODE  MAX. CHANGE        NODE
 ------------------------------------------------------------------------------------------------------------------------------------
  -0.39983    ,       3135
     TRANSPORT SOLUTION COMPLETE FOR COMPONENT SPECIES NUMBER    1
     ------------------------------------------------------------

 TRANSPORT SOLUTION COMPLETE FOR ALL SPECIES, SORTING OUTPUT FOR CONCENTRATIONS AND MASS BALANCE
 ----------------------------------------------------------------------------------------------------
     TRANSPORT OUTPUT FOR COMPONENT SPECIES NUMBER    1
     ------------------------------------------------------------
 -------------------------------------------------------------------------------------
 
 SOLVING FOR HEAD 

 Outer-Iteration  Inner-Iteration  Backtracking  Number of        Incoming       Outgoing      Cutoff     Maximum Head Change      Maximum Head Change
     Number           Count           Flag       Backtracks       Residual       Residual      Residual            Value               Location
        1                             0             0          0.396570E-02     0.396570E-02   -1.00000    
        1               13                                                                                       0.215343E-03               3134           GWF-node number
        2                             0             0          0.491707E-06     0.491707E-06   -1.00000    
        2                3                                                                                       0.114716E-05               2649           GWF-node number
     2 CALLS TO SPARSE MATRIX SOLVER PACKAGE  IN FLOW TIME STEP      88 STRESS PERIOD       2

 TOTAL OF       2OUTER ITERATIONS
  MAXIMUM CHANGE FOR EACH ITERATION:
   MAX. CHANGE        NODE  MAX. CHANGE        NODE  MAX. CHANGE        NODE  MAX. CHANGE        NODE  MAX. CHANGE        NODE
 ------------------------------------------------------------------------------------------------------------------------------------
   0.21534E-03,       3134  0.11472E-05,       2649

 NO OUTPUT CONTROL FOR STRESS PERIOD        2   TIME STEP       88



          TIME SUMMARY AT END OF TIME STEP        88 IN STRESS PERIOD         2
                    SECONDS     MINUTES      HOURS       DAYS        YEARS
                    -----------------------------------------------------------
   TIME STEP LENGTH  86.400      1.4400     2.40000E-02 1.00000E-03 2.73785E-06
 STRESS PERIOD TIME  7603.2      126.72      2.1120     8.80000E-02 2.40931E-04
         TOTAL TIME  94003.      1566.7      26.112      1.0880     2.97878E-03
1
 ------------------------------------------------------------------------------------------------------------
 
 SOLVING FOR TRANSPORT 

          SEQUENTIAL TRANSPORT ITERATION LOOP NUMBER    1
          -----------------------------------------------

 ------------------------------------------------------------------------------------------------------------------------
     1 CALLS TO SPARSE MATRIX SOLVER PACKAGE IN TRANSPORT TIME STEP      88 STRESS PERIOD       2 SPECIES  1

 TOTAL OF       1OUTER ITERATIONS
  MAXIMUM CHANGE FOR EACH ITERATION:
   MAX. CHANGE        NODE  MAX. CHANGE        NODE  MAX. CHANGE        NODE  MAX. CHANGE        NODE  MAX. CHANGE        NODE
 ------------------------------------------------------------------------------------------------------------------------------------
  -0.39943    ,       3135
     TRANSPORT SOLUTION COMPLETE FOR COMPONENT SPECIES NUMBER    1
     ------------------------------------------------------------

 TRANSPORT SOLUTION COMPLETE FOR ALL SPECIES, SORTING OUTPUT FOR CONCENTRATIONS AND MASS BALANCE
 ----------------------------------------------------------------------------------------------------
     TRANSPORT OUTPUT FOR COMPONENT SPECIES NUMBER    1
     ------------------------------------------------------------
 -------------------------------------------------------------------------------------
 
 SOLVING FOR HEAD 

 Outer-Iteration  Inner-Iteration  Backtracking  Number of        Incoming       Outgoing      Cutoff     Maximum Head Change      Maximum Head Change
     Number           Count           Flag       Backtracks       Residual       Residual      Residual            Value               Location
        1                             0             0          0.389656E-02     0.389656E-02   -1.00000    
        1               14                                                                                       0.217649E-03               3135           GWF-node number
        2                             0             0          0.282876E-06     0.282876E-06   -1.00000    
        2                2                                                                                       0.101654E-05               1444           GWF-node number
     2 CALLS TO SPARSE MATRIX SOLVER PACKAGE  IN FLOW TIME STEP      89 STRESS PERIOD       2

 TOTAL OF       2OUTER ITERATIONS
  MAXIMUM CHANGE FOR EACH ITERATION:
   MAX. CHANGE        NODE  MAX. CHANGE        NODE  MAX. CHANGE        NODE  MAX. CHANGE        NODE  MAX. CHANGE        NODE
 ------------------------------------------------------------------------------------------------------------------------------------
   0.21765E-03,       3135  0.10165E-05,       1444

 NO OUTPUT CONTROL FOR STRESS PERIOD        2   TIME STEP       89



          TIME SUMMARY AT END OF TIME STEP        89 IN STRESS PERIOD         2
                    SECONDS     MINUTES      HOURS       DAYS        YEARS
                    -----------------------------------------------------------
   TIME STEP LENGTH  86.400      1.4400     2.40000E-02 1.00000E-03 2.73785E-06
 STRESS PERIOD TIME  7689.6      128.16      2.1360     8.90000E-02 2.43669E-04
         TOTAL TIME  94090.      1568.2      26.136      1.0890     2.98152E-03
1
 ------------------------------------------------------------------------------------------------------------
 
 SOLVING FOR TRANSPORT 

          SEQUENTIAL TRANSPORT ITERATION LOOP NUMBER    1
          -----------------------------------------------

 ------------------------------------------------------------------------------------------------------------------------
     1 CALLS TO SPARSE MATRIX SOLVER PACKAGE IN TRANSPORT TIME STEP      89 STRESS PERIOD       2 SPECIES  1

 TOTAL OF       1OUTER ITERATIONS
  MAXIMUM CHANGE FOR EACH ITERATION:
   MAX. CHANGE        NODE  MAX. CHANGE        NODE  MAX. CHANGE        NODE  MAX. CHANGE        NODE  MAX. CHANGE        NODE
 ------------------------------------------------------------------------------------------------------------------------------------
  -0.39663    ,       3135
     TRANSPORT SOLUTION COMPLETE FOR COMPONENT SPECIES NUMBER    1
     ------------------------------------------------------------

 TRANSPORT SOLUTION COMPLETE FOR ALL SPECIES, SORTING OUTPUT FOR CONCENTRATIONS AND MASS BALANCE
 ----------------------------------------------------------------------------------------------------
     TRANSPORT OUTPUT FOR COMPONENT SPECIES NUMBER    1
     ------------------------------------------------------------
 -------------------------------------------------------------------------------------
 
 SOLVING FOR HEAD 

 Outer-Iteration  Inner-Iteration  Backtracking  Number of        Incoming       Outgoing      Cutoff     Maximum Head Change      Maximum Head Change
     Number           Count           Flag       Backtracks       Residual       Residual      Residual            Value               Location
        1                             0             0          0.372297E-02     0.372297E-02   -1.00000    
        1               13                                                                                       0.217164E-03               3135           GWF-node number
        2                             0             0          0.277555E-06     0.277555E-06   -1.00000    
        2                3                                                                                      -0.103735E-05               3149           GWF-node number
     2 CALLS TO SPARSE MATRIX SOLVER PACKAGE  IN FLOW TIME STEP      90 STRESS PERIOD       2

 TOTAL OF       2OUTER ITERATIONS
  MAXIMUM CHANGE FOR EACH ITERATION:
   MAX. CHANGE        NODE  MAX. CHANGE        NODE  MAX. CHANGE        NODE  MAX. CHANGE        NODE  MAX. CHANGE        NODE
 ------------------------------------------------------------------------------------------------------------------------------------
   0.21716E-03,       3135 -0.10374E-05,       3149

 NO OUTPUT CONTROL FOR STRESS PERIOD        2   TIME STEP       90



          TIME SUMMARY AT END OF TIME STEP        90 IN STRESS PERIOD         2
                    SECONDS     MINUTES      HOURS       DAYS        YEARS
                    -----------------------------------------------------------
   TIME STEP LENGTH  86.400      1.4400     2.40000E-02 1.00000E-03 2.73785E-06
 STRESS PERIOD TIME  7776.0      129.60      2.1600     9.00000E-02 2.46407E-04
         TOTAL TIME  94176.      1569.6      26.160      1.0900     2.98426E-03
1
 ------------------------------------------------------------------------------------------------------------
 
 SOLVING FOR TRANSPORT 

          SEQUENTIAL TRANSPORT ITERATION LOOP NUMBER    1
          -----------------------------------------------

 ------------------------------------------------------------------------------------------------------------------------
     1 CALLS TO SPARSE MATRIX SOLVER PACKAGE IN TRANSPORT TIME STEP      90 STRESS PERIOD       2 SPECIES  1

 TOTAL OF       1OUTER ITERATIONS
  MAXIMUM CHANGE FOR EACH ITERATION:
   MAX. CHANGE        NODE  MAX. CHANGE        NODE  MAX. CHANGE        NODE  MAX. CHANGE        NODE  MAX. CHANGE        NODE
 ------------------------------------------------------------------------------------------------------------------------------------
  -0.39381    ,       3136
     TRANSPORT SOLUTION COMPLETE FOR COMPONENT SPECIES NUMBER    1
     ------------------------------------------------------------

 TRANSPORT SOLUTION COMPLETE FOR ALL SPECIES, SORTING OUTPUT FOR CONCENTRATIONS AND MASS BALANCE
 ----------------------------------------------------------------------------------------------------
     TRANSPORT OUTPUT FOR COMPONENT SPECIES NUMBER    1
     ------------------------------------------------------------
 -------------------------------------------------------------------------------------
 
 SOLVING FOR HEAD 

 Outer-Iteration  Inner-Iteration  Backtracking  Number of        Incoming       Outgoing      Cutoff     Maximum Head Change      Maximum Head Change
     Number           Count           Flag       Backtracks       Residual       Residual      Residual            Value               Location
        1                             0             0          0.359580E-02     0.359580E-02   -1.00000    
        1               14                                                                                       0.215628E-03               3135           GWF-node number
        2                             0             0          0.273352E-06     0.273352E-06   -1.00000    
        2                2                                                                                      -0.958539E-06               3147           GWF-node number
     2 CALLS TO SPARSE MATRIX SOLVER PACKAGE  IN FLOW TIME STEP      91 STRESS PERIOD       2

 TOTAL OF       2OUTER ITERATIONS
  MAXIMUM CHANGE FOR EACH ITERATION:
   MAX. CHANGE        NODE  MAX. CHANGE        NODE  MAX. CHANGE        NODE  MAX. CHANGE        NODE  MAX. CHANGE        NODE
 ------------------------------------------------------------------------------------------------------------------------------------
   0.21563E-03,       3135 -0.95854E-06,       3147

 NO OUTPUT CONTROL FOR STRESS PERIOD        2   TIME STEP       91



          TIME SUMMARY AT END OF TIME STEP        91 IN STRESS PERIOD         2
                    SECONDS     MINUTES      HOURS       DAYS        YEARS
                    -----------------------------------------------------------
   TIME STEP LENGTH  86.400      1.4400     2.40000E-02 1.00000E-03 2.73785E-06
 STRESS PERIOD TIME  7862.4      131.04      2.1840     9.10000E-02 2.49144E-04
         TOTAL TIME  94262.      1571.0      26.184      1.0910     2.98700E-03
1
 ------------------------------------------------------------------------------------------------------------
 
 SOLVING FOR TRANSPORT 

          SEQUENTIAL TRANSPORT ITERATION LOOP NUMBER    1
          -----------------------------------------------

 ------------------------------------------------------------------------------------------------------------------------
     1 CALLS TO SPARSE MATRIX SOLVER PACKAGE IN TRANSPORT TIME STEP      91 STRESS PERIOD       2 SPECIES  1

 TOTAL OF       1OUTER ITERATIONS
  MAXIMUM CHANGE FOR EACH ITERATION:
   MAX. CHANGE        NODE  MAX. CHANGE        NODE  MAX. CHANGE        NODE  MAX. CHANGE        NODE  MAX. CHANGE        NODE
 ------------------------------------------------------------------------------------------------------------------------------------
  -0.39133    ,       3136
     TRANSPORT SOLUTION COMPLETE FOR COMPONENT SPECIES NUMBER    1
     ------------------------------------------------------------

 TRANSPORT SOLUTION COMPLETE FOR ALL SPECIES, SORTING OUTPUT FOR CONCENTRATIONS AND MASS BALANCE
 ----------------------------------------------------------------------------------------------------
     TRANSPORT OUTPUT FOR COMPONENT SPECIES NUMBER    1
     ------------------------------------------------------------
 -------------------------------------------------------------------------------------
 
 SOLVING FOR HEAD 

 Outer-Iteration  Inner-Iteration  Backtracking  Number of        Incoming       Outgoing      Cutoff     Maximum Head Change      Maximum Head Change
     Number           Count           Flag       Backtracks       Residual       Residual      Residual            Value               Location
        1                             0             0          0.353228E-02     0.353228E-02   -1.00000    
        1               14                                                                                       0.216026E-03               3136           GWF-node number
        2                             0             0          0.418181E-06     0.418181E-06   -1.00000    
        2                3                                                                                      -0.957854E-06               3148           GWF-node number
     2 CALLS TO SPARSE MATRIX SOLVER PACKAGE  IN FLOW TIME STEP      92 STRESS PERIOD       2

 TOTAL OF       2OUTER ITERATIONS
  MAXIMUM CHANGE FOR EACH ITERATION:
   MAX. CHANGE        NODE  MAX. CHANGE        NODE  MAX. CHANGE        NODE  MAX. CHANGE        NODE  MAX. CHANGE        NODE
 ------------------------------------------------------------------------------------------------------------------------------------
   0.21603E-03,       3136 -0.95785E-06,       3148

 NO OUTPUT CONTROL FOR STRESS PERIOD        2   TIME STEP       92



          TIME SUMMARY AT END OF TIME STEP        92 IN STRESS PERIOD         2
                    SECONDS     MINUTES      HOURS       DAYS        YEARS
                    -----------------------------------------------------------
   TIME STEP LENGTH  86.400      1.4400     2.40000E-02 1.00000E-03 2.73785E-06
 STRESS PERIOD TIME  7948.8      132.48      2.2080     9.20000E-02 2.51882E-04
         TOTAL TIME  94349.      1572.5      26.208      1.0920     2.98973E-03
1
 ------------------------------------------------------------------------------------------------------------
 
 SOLVING FOR TRANSPORT 

          SEQUENTIAL TRANSPORT ITERATION LOOP NUMBER    1
          -----------------------------------------------

 ------------------------------------------------------------------------------------------------------------------------
     1 CALLS TO SPARSE MATRIX SOLVER PACKAGE IN TRANSPORT TIME STEP      92 STRESS PERIOD       2 SPECIES  1

 TOTAL OF       1OUTER ITERATIONS
  MAXIMUM CHANGE FOR EACH ITERATION:
   MAX. CHANGE        NODE  MAX. CHANGE        NODE  MAX. CHANGE        NODE  MAX. CHANGE        NODE  MAX. CHANGE        NODE
 ------------------------------------------------------------------------------------------------------------------------------------
  -0.38746    ,       3137
     TRANSPORT SOLUTION COMPLETE FOR COMPONENT SPECIES NUMBER    1
     ------------------------------------------------------------

 TRANSPORT SOLUTION COMPLETE FOR ALL SPECIES, SORTING OUTPUT FOR CONCENTRATIONS AND MASS BALANCE
 ----------------------------------------------------------------------------------------------------
     TRANSPORT OUTPUT FOR COMPONENT SPECIES NUMBER    1
     ------------------------------------------------------------
 -------------------------------------------------------------------------------------
 
 SOLVING FOR HEAD 

 Outer-Iteration  Inner-Iteration  Backtracking  Number of        Incoming       Outgoing      Cutoff     Maximum Head Change      Maximum Head Change
     Number           Count           Flag       Backtracks       Residual       Residual      Residual            Value               Location
        1                             0             0          0.340332E-02     0.340332E-02   -1.00000    
        1               14                                                                                       0.215022E-03               3136           GWF-node number
        2                             0             0          0.320783E-06     0.320783E-06   -1.00000    
        2                2                                                                                       0.106438E-05               3046           GWF-node number
     2 CALLS TO SPARSE MATRIX SOLVER PACKAGE  IN FLOW TIME STEP      93 STRESS PERIOD       2

 TOTAL OF       2OUTER ITERATIONS
  MAXIMUM CHANGE FOR EACH ITERATION:
   MAX. CHANGE        NODE  MAX. CHANGE        NODE  MAX. CHANGE        NODE  MAX. CHANGE        NODE  MAX. CHANGE        NODE
 ------------------------------------------------------------------------------------------------------------------------------------
   0.21502E-03,       3136  0.10644E-05,       3046

 NO OUTPUT CONTROL FOR STRESS PERIOD        2   TIME STEP       93



          TIME SUMMARY AT END OF TIME STEP        93 IN STRESS PERIOD         2
                    SECONDS     MINUTES      HOURS       DAYS        YEARS
                    -----------------------------------------------------------
   TIME STEP LENGTH  86.400      1.4400     2.40000E-02 1.00000E-03 2.73785E-06
 STRESS PERIOD TIME  8035.2      133.92      2.2320     9.30000E-02 2.54620E-04
         TOTAL TIME  94435.      1573.9      26.232      1.0930     2.99247E-03
1
 ------------------------------------------------------------------------------------------------------------
 
 SOLVING FOR TRANSPORT 

          SEQUENTIAL TRANSPORT ITERATION LOOP NUMBER    1
          -----------------------------------------------

 ------------------------------------------------------------------------------------------------------------------------
     1 CALLS TO SPARSE MATRIX SOLVER PACKAGE IN TRANSPORT TIME STEP      93 STRESS PERIOD       2 SPECIES  1

 TOTAL OF       1OUTER ITERATIONS
  MAXIMUM CHANGE FOR EACH ITERATION:
   MAX. CHANGE        NODE  MAX. CHANGE        NODE  MAX. CHANGE        NODE  MAX. CHANGE        NODE  MAX. CHANGE        NODE
 ------------------------------------------------------------------------------------------------------------------------------------
  -0.38668    ,       3137
     TRANSPORT SOLUTION COMPLETE FOR COMPONENT SPECIES NUMBER    1
     ------------------------------------------------------------

 TRANSPORT SOLUTION COMPLETE FOR ALL SPECIES, SORTING OUTPUT FOR CONCENTRATIONS AND MASS BALANCE
 ----------------------------------------------------------------------------------------------------
     TRANSPORT OUTPUT FOR COMPONENT SPECIES NUMBER    1
     ------------------------------------------------------------
 -------------------------------------------------------------------------------------
 
 SOLVING FOR HEAD 

 Outer-Iteration  Inner-Iteration  Backtracking  Number of        Incoming       Outgoing      Cutoff     Maximum Head Change      Maximum Head Change
     Number           Count           Flag       Backtracks       Residual       Residual      Residual            Value               Location
        1                             0             0          0.333943E-02     0.333943E-02   -1.00000    
        1               12                                                                                       0.216296E-03               3137           GWF-node number
        2                             0             0          0.961180E-06     0.961180E-06   -1.00000    
        2                2                                                                                      -0.282880E-05               3069           GWF-node number
     2 CALLS TO SPARSE MATRIX SOLVER PACKAGE  IN FLOW TIME STEP      94 STRESS PERIOD       2

 TOTAL OF       2OUTER ITERATIONS
  MAXIMUM CHANGE FOR EACH ITERATION:
   MAX. CHANGE        NODE  MAX. CHANGE        NODE  MAX. CHANGE        NODE  MAX. CHANGE        NODE  MAX. CHANGE        NODE
 ------------------------------------------------------------------------------------------------------------------------------------
   0.21630E-03,       3137 -0.28288E-05,       3069

 NO OUTPUT CONTROL FOR STRESS PERIOD        2   TIME STEP       94



          TIME SUMMARY AT END OF TIME STEP        94 IN STRESS PERIOD         2
                    SECONDS     MINUTES      HOURS       DAYS        YEARS
                    -----------------------------------------------------------
   TIME STEP LENGTH  86.400      1.4400     2.40000E-02 1.00000E-03 2.73785E-06
 STRESS PERIOD TIME  8121.6      135.36      2.2560     9.40000E-02 2.57358E-04
         TOTAL TIME  94522.      1575.4      26.256      1.0940     2.99521E-03
1
 ------------------------------------------------------------------------------------------------------------
 
 SOLVING FOR TRANSPORT 

          SEQUENTIAL TRANSPORT ITERATION LOOP NUMBER    1
          -----------------------------------------------

 ------------------------------------------------------------------------------------------------------------------------
     1 CALLS TO SPARSE MATRIX SOLVER PACKAGE IN TRANSPORT TIME STEP      94 STRESS PERIOD       2 SPECIES  1

 TOTAL OF       1OUTER ITERATIONS
  MAXIMUM CHANGE FOR EACH ITERATION:
   MAX. CHANGE        NODE  MAX. CHANGE        NODE  MAX. CHANGE        NODE  MAX. CHANGE        NODE  MAX. CHANGE        NODE
 ------------------------------------------------------------------------------------------------------------------------------------
  -0.38264    ,       3137
     TRANSPORT SOLUTION COMPLETE FOR COMPONENT SPECIES NUMBER    1
     ------------------------------------------------------------

 TRANSPORT SOLUTION COMPLETE FOR ALL SPECIES, SORTING OUTPUT FOR CONCENTRATIONS AND MASS BALANCE
 ----------------------------------------------------------------------------------------------------
     TRANSPORT OUTPUT FOR COMPONENT SPECIES NUMBER    1
     ------------------------------------------------------------
 -------------------------------------------------------------------------------------
 
 SOLVING FOR HEAD 

 Outer-Iteration  Inner-Iteration  Backtracking  Number of        Incoming       Outgoing      Cutoff     Maximum Head Change      Maximum Head Change
     Number           Count           Flag       Backtracks       Residual       Residual      Residual            Value               Location
        1                             0             0          0.331357E-02     0.331357E-02   -1.00000    
        1               12                                                                                       0.212434E-03               3137           GWF-node number
        2                             0             0          0.571314E-06     0.571314E-06   -1.00000    
        2                2                                                                                       0.922034E-06               2888           GWF-node number
     2 CALLS TO SPARSE MATRIX SOLVER PACKAGE  IN FLOW TIME STEP      95 STRESS PERIOD       2

 TOTAL OF       2OUTER ITERATIONS
  MAXIMUM CHANGE FOR EACH ITERATION:
   MAX. CHANGE        NODE  MAX. CHANGE        NODE  MAX. CHANGE        NODE  MAX. CHANGE        NODE  MAX. CHANGE        NODE
 ------------------------------------------------------------------------------------------------------------------------------------
   0.21243E-03,       3137  0.92203E-06,       2888

 NO OUTPUT CONTROL FOR STRESS PERIOD        2   TIME STEP       95



          TIME SUMMARY AT END OF TIME STEP        95 IN STRESS PERIOD         2
                    SECONDS     MINUTES      HOURS       DAYS        YEARS
                    -----------------------------------------------------------
   TIME STEP LENGTH  86.400      1.4400     2.40000E-02 1.00000E-03 2.73785E-06
 STRESS PERIOD TIME  8208.0      136.80      2.2800     9.50000E-02 2.60096E-04
         TOTAL TIME  94608.      1576.8      26.280      1.0950     2.99795E-03
1
 ------------------------------------------------------------------------------------------------------------
 
 SOLVING FOR TRANSPORT 

          SEQUENTIAL TRANSPORT ITERATION LOOP NUMBER    1
          -----------------------------------------------

 ------------------------------------------------------------------------------------------------------------------------
     1 CALLS TO SPARSE MATRIX SOLVER PACKAGE IN TRANSPORT TIME STEP      95 STRESS PERIOD       2 SPECIES  1

 TOTAL OF       1OUTER ITERATIONS
  MAXIMUM CHANGE FOR EACH ITERATION:
   MAX. CHANGE        NODE  MAX. CHANGE        NODE  MAX. CHANGE        NODE  MAX. CHANGE        NODE  MAX. CHANGE        NODE
 ------------------------------------------------------------------------------------------------------------------------------------
  -0.37958    ,       3138
     TRANSPORT SOLUTION COMPLETE FOR COMPONENT SPECIES NUMBER    1
     ------------------------------------------------------------

 TRANSPORT SOLUTION COMPLETE FOR ALL SPECIES, SORTING OUTPUT FOR CONCENTRATIONS AND MASS BALANCE
 ----------------------------------------------------------------------------------------------------
     TRANSPORT OUTPUT FOR COMPONENT SPECIES NUMBER    1
     ------------------------------------------------------------
 -------------------------------------------------------------------------------------
 
 SOLVING FOR HEAD 

 Outer-Iteration  Inner-Iteration  Backtracking  Number of        Incoming       Outgoing      Cutoff     Maximum Head Change      Maximum Head Change
     Number           Count           Flag       Backtracks       Residual       Residual      Residual            Value               Location
        1                             0             0          0.328920E-02     0.328920E-02   -1.00000    
        1               13                                                                                       0.213473E-03               3137           GWF-node number
        2                             0             0          0.280030E-05     0.280030E-05   -1.00000    
        2                3                                                                                      -0.155630E-05               2988           GWF-node number
     2 CALLS TO SPARSE MATRIX SOLVER PACKAGE  IN FLOW TIME STEP      96 STRESS PERIOD       2

 TOTAL OF       2OUTER ITERATIONS
  MAXIMUM CHANGE FOR EACH ITERATION:
   MAX. CHANGE        NODE  MAX. CHANGE        NODE  MAX. CHANGE        NODE  MAX. CHANGE        NODE  MAX. CHANGE        NODE
 ------------------------------------------------------------------------------------------------------------------------------------
   0.21347E-03,       3137 -0.15563E-05,       2988

 NO OUTPUT CONTROL FOR STRESS PERIOD        2   TIME STEP       96



          TIME SUMMARY AT END OF TIME STEP        96 IN STRESS PERIOD         2
                    SECONDS     MINUTES      HOURS       DAYS        YEARS
                    -----------------------------------------------------------
   TIME STEP LENGTH  86.400      1.4400     2.40000E-02 1.00000E-03 2.73785E-06
 STRESS PERIOD TIME  8294.4      138.24      2.3040     9.60000E-02 2.62834E-04
         TOTAL TIME  94694.      1578.2      26.304      1.0960     3.00068E-03
1
 ------------------------------------------------------------------------------------------------------------
 
 SOLVING FOR TRANSPORT 

          SEQUENTIAL TRANSPORT ITERATION LOOP NUMBER    1
          -----------------------------------------------

 ------------------------------------------------------------------------------------------------------------------------
     1 CALLS TO SPARSE MATRIX SOLVER PACKAGE IN TRANSPORT TIME STEP      96 STRESS PERIOD       2 SPECIES  1

 TOTAL OF       1OUTER ITERATIONS
  MAXIMUM CHANGE FOR EACH ITERATION:
   MAX. CHANGE        NODE  MAX. CHANGE        NODE  MAX. CHANGE        NODE  MAX. CHANGE        NODE  MAX. CHANGE        NODE
 ------------------------------------------------------------------------------------------------------------------------------------
  -0.37729    ,       3138
     TRANSPORT SOLUTION COMPLETE FOR COMPONENT SPECIES NUMBER    1
     ------------------------------------------------------------

 TRANSPORT SOLUTION COMPLETE FOR ALL SPECIES, SORTING OUTPUT FOR CONCENTRATIONS AND MASS BALANCE
 ----------------------------------------------------------------------------------------------------
     TRANSPORT OUTPUT FOR COMPONENT SPECIES NUMBER    1
     ------------------------------------------------------------
 -------------------------------------------------------------------------------------
 
 SOLVING FOR HEAD 

 Outer-Iteration  Inner-Iteration  Backtracking  Number of        Incoming       Outgoing      Cutoff     Maximum Head Change      Maximum Head Change
     Number           Count           Flag       Backtracks       Residual       Residual      Residual            Value               Location
        1                             0             0          0.314617E-02     0.314617E-02   -1.00000    
        1               12                                                                                       0.212025E-03               3137           GWF-node number
        2                             0             0          0.135201E-05     0.135201E-05   -1.00000    
        2                2                                                                                      -0.103395E-05               2689           GWF-node number
     2 CALLS TO SPARSE MATRIX SOLVER PACKAGE  IN FLOW TIME STEP      97 STRESS PERIOD       2

 TOTAL OF       2OUTER ITERATIONS
  MAXIMUM CHANGE FOR EACH ITERATION:
   MAX. CHANGE        NODE  MAX. CHANGE        NODE  MAX. CHANGE        NODE  MAX. CHANGE        NODE  MAX. CHANGE        NODE
 ------------------------------------------------------------------------------------------------------------------------------------
   0.21203E-03,       3137 -0.10340E-05,       2689

 NO OUTPUT CONTROL FOR STRESS PERIOD        2   TIME STEP       97



          TIME SUMMARY AT END OF TIME STEP        97 IN STRESS PERIOD         2
                    SECONDS     MINUTES      HOURS       DAYS        YEARS
                    -----------------------------------------------------------
   TIME STEP LENGTH  86.400      1.4400     2.40000E-02 1.00000E-03 2.73785E-06
 STRESS PERIOD TIME  8380.8      139.68      2.3280     9.70000E-02 2.65572E-04
         TOTAL TIME  94781.      1579.7      26.328      1.0970     3.00342E-03
1
 ------------------------------------------------------------------------------------------------------------
 
 SOLVING FOR TRANSPORT 

          SEQUENTIAL TRANSPORT ITERATION LOOP NUMBER    1
          -----------------------------------------------

 ------------------------------------------------------------------------------------------------------------------------
     1 CALLS TO SPARSE MATRIX SOLVER PACKAGE IN TRANSPORT TIME STEP      97 STRESS PERIOD       2 SPECIES  1

 TOTAL OF       1OUTER ITERATIONS
  MAXIMUM CHANGE FOR EACH ITERATION:
   MAX. CHANGE        NODE  MAX. CHANGE        NODE  MAX. CHANGE        NODE  MAX. CHANGE        NODE  MAX. CHANGE        NODE
 ------------------------------------------------------------------------------------------------------------------------------------
  -0.37426    ,       3138
     TRANSPORT SOLUTION COMPLETE FOR COMPONENT SPECIES NUMBER    1
     ------------------------------------------------------------

 TRANSPORT SOLUTION COMPLETE FOR ALL SPECIES, SORTING OUTPUT FOR CONCENTRATIONS AND MASS BALANCE
 ----------------------------------------------------------------------------------------------------
     TRANSPORT OUTPUT FOR COMPONENT SPECIES NUMBER    1
     ------------------------------------------------------------
 -------------------------------------------------------------------------------------
 
 SOLVING FOR HEAD 

 Outer-Iteration  Inner-Iteration  Backtracking  Number of        Incoming       Outgoing      Cutoff     Maximum Head Change      Maximum Head Change
     Number           Count           Flag       Backtracks       Residual       Residual      Residual            Value               Location
        1                             0             0          0.320353E-02     0.320353E-02   -1.00000    
        1               12                                                                                       0.211367E-03               3138           GWF-node number
        2                             0             0          0.876190E-06     0.876190E-06   -1.00000    
        2                3                                                                                       0.885495E-06               1164           GWF-node number
     2 CALLS TO SPARSE MATRIX SOLVER PACKAGE  IN FLOW TIME STEP      98 STRESS PERIOD       2

 TOTAL OF       2OUTER ITERATIONS
  MAXIMUM CHANGE FOR EACH ITERATION:
   MAX. CHANGE        NODE  MAX. CHANGE        NODE  MAX. CHANGE        NODE  MAX. CHANGE        NODE  MAX. CHANGE        NODE
 ------------------------------------------------------------------------------------------------------------------------------------
   0.21137E-03,       3138  0.88550E-06,       1164

 NO OUTPUT CONTROL FOR STRESS PERIOD        2   TIME STEP       98



          TIME SUMMARY AT END OF TIME STEP        98 IN STRESS PERIOD         2
                    SECONDS     MINUTES      HOURS       DAYS        YEARS
                    -----------------------------------------------------------
   TIME STEP LENGTH  86.400      1.4400     2.40000E-02 1.00000E-03 2.73785E-06
 STRESS PERIOD TIME  8467.2      141.12      2.3520     9.80000E-02 2.68309E-04
         TOTAL TIME  94867.      1581.1      26.352      1.0980     3.00616E-03
1
 ------------------------------------------------------------------------------------------------------------
 
 SOLVING FOR TRANSPORT 

          SEQUENTIAL TRANSPORT ITERATION LOOP NUMBER    1
          -----------------------------------------------

 ------------------------------------------------------------------------------------------------------------------------
     1 CALLS TO SPARSE MATRIX SOLVER PACKAGE IN TRANSPORT TIME STEP      98 STRESS PERIOD       2 SPECIES  1

 TOTAL OF       1OUTER ITERATIONS
  MAXIMUM CHANGE FOR EACH ITERATION:
   MAX. CHANGE        NODE  MAX. CHANGE        NODE  MAX. CHANGE        NODE  MAX. CHANGE        NODE  MAX. CHANGE        NODE
 ------------------------------------------------------------------------------------------------------------------------------------
  -0.36936    ,       3138
     TRANSPORT SOLUTION COMPLETE FOR COMPONENT SPECIES NUMBER    1
     ------------------------------------------------------------

 TRANSPORT SOLUTION COMPLETE FOR ALL SPECIES, SORTING OUTPUT FOR CONCENTRATIONS AND MASS BALANCE
 ----------------------------------------------------------------------------------------------------
     TRANSPORT OUTPUT FOR COMPONENT SPECIES NUMBER    1
     ------------------------------------------------------------
 -------------------------------------------------------------------------------------
 
 SOLVING FOR HEAD 

 Outer-Iteration  Inner-Iteration  Backtracking  Number of        Incoming       Outgoing      Cutoff     Maximum Head Change      Maximum Head Change
     Number           Count           Flag       Backtracks       Residual       Residual      Residual            Value               Location
        1                             0             0          0.321685E-02     0.321685E-02   -1.00000    
        1               12                                                                                       0.210635E-03               3138           GWF-node number
        2                             0             0          0.161783E-05     0.161783E-05   -1.00000    
        2                2                                                                                      -0.711087E-06               2843           GWF-node number
     2 CALLS TO SPARSE MATRIX SOLVER PACKAGE  IN FLOW TIME STEP      99 STRESS PERIOD       2

 TOTAL OF       2OUTER ITERATIONS
  MAXIMUM CHANGE FOR EACH ITERATION:
   MAX. CHANGE        NODE  MAX. CHANGE        NODE  MAX. CHANGE        NODE  MAX. CHANGE        NODE  MAX. CHANGE        NODE
 ------------------------------------------------------------------------------------------------------------------------------------
   0.21063E-03,       3138 -0.71109E-06,       2843

 NO OUTPUT CONTROL FOR STRESS PERIOD        2   TIME STEP       99



          TIME SUMMARY AT END OF TIME STEP        99 IN STRESS PERIOD         2
                    SECONDS     MINUTES      HOURS       DAYS        YEARS
                    -----------------------------------------------------------
   TIME STEP LENGTH  86.400      1.4400     2.40000E-02 1.00000E-03 2.73785E-06
 STRESS PERIOD TIME  8553.6      142.56      2.3760     9.90000E-02 2.71047E-04
         TOTAL TIME  94954.      1582.6      26.376      1.0990     3.00890E-03
1
 ------------------------------------------------------------------------------------------------------------
 
 SOLVING FOR TRANSPORT 

          SEQUENTIAL TRANSPORT ITERATION LOOP NUMBER    1
          -----------------------------------------------

 ------------------------------------------------------------------------------------------------------------------------
     1 CALLS TO SPARSE MATRIX SOLVER PACKAGE IN TRANSPORT TIME STEP      99 STRESS PERIOD       2 SPECIES  1

 TOTAL OF       1OUTER ITERATIONS
  MAXIMUM CHANGE FOR EACH ITERATION:
   MAX. CHANGE        NODE  MAX. CHANGE        NODE  MAX. CHANGE        NODE  MAX. CHANGE        NODE  MAX. CHANGE        NODE
 ------------------------------------------------------------------------------------------------------------------------------------
  -0.36792    ,       3139
     TRANSPORT SOLUTION COMPLETE FOR COMPONENT SPECIES NUMBER    1
     ------------------------------------------------------------

 TRANSPORT SOLUTION COMPLETE FOR ALL SPECIES, SORTING OUTPUT FOR CONCENTRATIONS AND MASS BALANCE
 ----------------------------------------------------------------------------------------------------
     TRANSPORT OUTPUT FOR COMPONENT SPECIES NUMBER    1
     ------------------------------------------------------------
 -------------------------------------------------------------------------------------
 
 SOLVING FOR HEAD 

 Outer-Iteration  Inner-Iteration  Backtracking  Number of        Incoming       Outgoing      Cutoff     Maximum Head Change      Maximum Head Change
     Number           Count           Flag       Backtracks       Residual       Residual      Residual            Value               Location
        1                             0             0          0.322448E-02     0.322448E-02   -1.00000    
        1               13                                                                                       0.208077E-03               3138           GWF-node number
        2                             0             0          0.230980E-06     0.230980E-06   -1.00000    
        2                1                                                                                       0.948414E-06               2961           GWF-node number
     2 CALLS TO SPARSE MATRIX SOLVER PACKAGE  IN FLOW TIME STEP     100 STRESS PERIOD       2

 TOTAL OF       2OUTER ITERATIONS
  MAXIMUM CHANGE FOR EACH ITERATION:
   MAX. CHANGE        NODE  MAX. CHANGE        NODE  MAX. CHANGE        NODE  MAX. CHANGE        NODE  MAX. CHANGE        NODE
 ------------------------------------------------------------------------------------------------------------------------------------
   0.20808E-03,       3138  0.94841E-06,       2961

 NO OUTPUT CONTROL FOR STRESS PERIOD        2   TIME STEP      100



          TIME SUMMARY AT END OF TIME STEP       100 IN STRESS PERIOD         2
                    SECONDS     MINUTES      HOURS       DAYS        YEARS
                    -----------------------------------------------------------
   TIME STEP LENGTH  86.400      1.4400     2.40000E-02 1.00000E-03 2.73785E-06
 STRESS PERIOD TIME  8640.0      144.00      2.4000     0.10000     2.73785E-04
         TOTAL TIME  95040.      1584.0      26.400      1.1000     3.01164E-03
1
 ------------------------------------------------------------------------------------------------------------
 
 SOLVING FOR TRANSPORT 

          SEQUENTIAL TRANSPORT ITERATION LOOP NUMBER    1
          -----------------------------------------------

 ------------------------------------------------------------------------------------------------------------------------
     1 CALLS TO SPARSE MATRIX SOLVER PACKAGE IN TRANSPORT TIME STEP     100 STRESS PERIOD       2 SPECIES  1

 TOTAL OF       1OUTER ITERATIONS
  MAXIMUM CHANGE FOR EACH ITERATION:
   MAX. CHANGE        NODE  MAX. CHANGE        NODE  MAX. CHANGE        NODE  MAX. CHANGE        NODE  MAX. CHANGE        NODE
 ------------------------------------------------------------------------------------------------------------------------------------
  -0.36514    ,       3139
     TRANSPORT SOLUTION COMPLETE FOR COMPONENT SPECIES NUMBER    1
     ------------------------------------------------------------

 TRANSPORT SOLUTION COMPLETE FOR ALL SPECIES, SORTING OUTPUT FOR CONCENTRATIONS AND MASS BALANCE
 ----------------------------------------------------------------------------------------------------
     TRANSPORT OUTPUT FOR COMPONENT SPECIES NUMBER    1
     ------------------------------------------------------------
 -------------------------------------------------------------------------------------
 
 SOLVING FOR HEAD 

 Outer-Iteration  Inner-Iteration  Backtracking  Number of        Incoming       Outgoing      Cutoff     Maximum Head Change      Maximum Head Change
     Number           Count           Flag       Backtracks       Residual       Residual      Residual            Value               Location
        1                             0             0          0.318067E-02     0.318067E-02   -1.00000    
        1               15                                                                                       0.207965E-03               3138           GWF-node number
        2                             0             0          0.133409E-06     0.133409E-06   -1.00000    
        2                4                                                                                       0.119218E-05               2330           GWF-node number
     2 CALLS TO SPARSE MATRIX SOLVER PACKAGE  IN FLOW TIME STEP     101 STRESS PERIOD       2

 TOTAL OF       2OUTER ITERATIONS
  MAXIMUM CHANGE FOR EACH ITERATION:
   MAX. CHANGE        NODE  MAX. CHANGE        NODE  MAX. CHANGE        NODE  MAX. CHANGE        NODE  MAX. CHANGE        NODE
 ------------------------------------------------------------------------------------------------------------------------------------
   0.20796E-03,       3138  0.11922E-05,       2330

 NO OUTPUT CONTROL FOR STRESS PERIOD        2   TIME STEP      101



          TIME SUMMARY AT END OF TIME STEP       101 IN STRESS PERIOD         2
                    SECONDS     MINUTES      HOURS       DAYS        YEARS
                    -----------------------------------------------------------
   TIME STEP LENGTH  86.400      1.4400     2.40000E-02 1.00000E-03 2.73785E-06
 STRESS PERIOD TIME  8726.4      145.44      2.4240     0.10100     2.76523E-04
         TOTAL TIME  95126.      1585.4      26.424      1.1010     3.01437E-03
1
 ------------------------------------------------------------------------------------------------------------
 
 SOLVING FOR TRANSPORT 

          SEQUENTIAL TRANSPORT ITERATION LOOP NUMBER    1
          -----------------------------------------------

 ------------------------------------------------------------------------------------------------------------------------
     1 CALLS TO SPARSE MATRIX SOLVER PACKAGE IN TRANSPORT TIME STEP     101 STRESS PERIOD       2 SPECIES  1

 TOTAL OF       1OUTER ITERATIONS
  MAXIMUM CHANGE FOR EACH ITERATION:
   MAX. CHANGE        NODE  MAX. CHANGE        NODE  MAX. CHANGE        NODE  MAX. CHANGE        NODE  MAX. CHANGE        NODE
 ------------------------------------------------------------------------------------------------------------------------------------
  -0.36020    ,       3139
     TRANSPORT SOLUTION COMPLETE FOR COMPONENT SPECIES NUMBER    1
     ------------------------------------------------------------

 TRANSPORT SOLUTION COMPLETE FOR ALL SPECIES, SORTING OUTPUT FOR CONCENTRATIONS AND MASS BALANCE
 ----------------------------------------------------------------------------------------------------
     TRANSPORT OUTPUT FOR COMPONENT SPECIES NUMBER    1
     ------------------------------------------------------------
 -------------------------------------------------------------------------------------
 
 SOLVING FOR HEAD 

 Outer-Iteration  Inner-Iteration  Backtracking  Number of        Incoming       Outgoing      Cutoff     Maximum Head Change      Maximum Head Change
     Number           Count           Flag       Backtracks       Residual       Residual      Residual            Value               Location
        1                             0             0          0.330206E-02     0.330206E-02   -1.00000    
        1               12                                                                                       0.206963E-03               3139           GWF-node number
        2                             0             0          0.889994E-06     0.889994E-06   -1.00000    
        2                3                                                                                      -0.851570E-06               3070           GWF-node number
     2 CALLS TO SPARSE MATRIX SOLVER PACKAGE  IN FLOW TIME STEP     102 STRESS PERIOD       2

 TOTAL OF       2OUTER ITERATIONS
  MAXIMUM CHANGE FOR EACH ITERATION:
   MAX. CHANGE        NODE  MAX. CHANGE        NODE  MAX. CHANGE        NODE  MAX. CHANGE        NODE  MAX. CHANGE        NODE
 ------------------------------------------------------------------------------------------------------------------------------------
   0.20696E-03,       3139 -0.85157E-06,       3070

 NO OUTPUT CONTROL FOR STRESS PERIOD        2   TIME STEP      102



          TIME SUMMARY AT END OF TIME STEP       102 IN STRESS PERIOD         2
                    SECONDS     MINUTES      HOURS       DAYS        YEARS
                    -----------------------------------------------------------
   TIME STEP LENGTH  86.400      1.4400     2.40000E-02 1.00000E-03 2.73785E-06
 STRESS PERIOD TIME  8812.8      146.88      2.4480     0.10200     2.79261E-04
         TOTAL TIME  95213.      1586.9      26.448      1.1020     3.01711E-03
1
 ------------------------------------------------------------------------------------------------------------
 
 SOLVING FOR TRANSPORT 

          SEQUENTIAL TRANSPORT ITERATION LOOP NUMBER    1
          -----------------------------------------------

 ------------------------------------------------------------------------------------------------------------------------
     1 CALLS TO SPARSE MATRIX SOLVER PACKAGE IN TRANSPORT TIME STEP     102 STRESS PERIOD       2 SPECIES  1

 TOTAL OF       1OUTER ITERATIONS
  MAXIMUM CHANGE FOR EACH ITERATION:
   MAX. CHANGE        NODE  MAX. CHANGE        NODE  MAX. CHANGE        NODE  MAX. CHANGE        NODE  MAX. CHANGE        NODE
 ------------------------------------------------------------------------------------------------------------------------------------
  -0.35819    ,       3140
     TRANSPORT SOLUTION COMPLETE FOR COMPONENT SPECIES NUMBER    1
     ------------------------------------------------------------

 TRANSPORT SOLUTION COMPLETE FOR ALL SPECIES, SORTING OUTPUT FOR CONCENTRATIONS AND MASS BALANCE
 ----------------------------------------------------------------------------------------------------
     TRANSPORT OUTPUT FOR COMPONENT SPECIES NUMBER    1
     ------------------------------------------------------------
 -------------------------------------------------------------------------------------
 
 SOLVING FOR HEAD 

 Outer-Iteration  Inner-Iteration  Backtracking  Number of        Incoming       Outgoing      Cutoff     Maximum Head Change      Maximum Head Change
     Number           Count           Flag       Backtracks       Residual       Residual      Residual            Value               Location
        1                             0             0          0.331635E-02     0.331635E-02   -1.00000    
        1               14                                                                                       0.206202E-03               3139           GWF-node number
        2                             0             0          0.130368E-06     0.130368E-06   -1.00000    
        2                2                                                                                       0.152717E-05               1528           GWF-node number
     2 CALLS TO SPARSE MATRIX SOLVER PACKAGE  IN FLOW TIME STEP     103 STRESS PERIOD       2

 TOTAL OF       2OUTER ITERATIONS
  MAXIMUM CHANGE FOR EACH ITERATION:
   MAX. CHANGE        NODE  MAX. CHANGE        NODE  MAX. CHANGE        NODE  MAX. CHANGE        NODE  MAX. CHANGE        NODE
 ------------------------------------------------------------------------------------------------------------------------------------
   0.20620E-03,       3139  0.15272E-05,       1528

 NO OUTPUT CONTROL FOR STRESS PERIOD        2   TIME STEP      103



          TIME SUMMARY AT END OF TIME STEP       103 IN STRESS PERIOD         2
                    SECONDS     MINUTES      HOURS       DAYS        YEARS
                    -----------------------------------------------------------
   TIME STEP LENGTH  86.400      1.4400     2.40000E-02 1.00000E-03 2.73785E-06
 STRESS PERIOD TIME  8899.2      148.32      2.4720     0.10300     2.81999E-04
         TOTAL TIME  95299.      1588.3      26.472      1.1030     3.01985E-03
1
 ------------------------------------------------------------------------------------------------------------
 
 SOLVING FOR TRANSPORT 

          SEQUENTIAL TRANSPORT ITERATION LOOP NUMBER    1
          -----------------------------------------------

 ------------------------------------------------------------------------------------------------------------------------
     1 CALLS TO SPARSE MATRIX SOLVER PACKAGE IN TRANSPORT TIME STEP     103 STRESS PERIOD       2 SPECIES  1

 TOTAL OF       1OUTER ITERATIONS
  MAXIMUM CHANGE FOR EACH ITERATION:
   MAX. CHANGE        NODE  MAX. CHANGE        NODE  MAX. CHANGE        NODE  MAX. CHANGE        NODE  MAX. CHANGE        NODE
 ------------------------------------------------------------------------------------------------------------------------------------
  -0.35571    ,       3140
     TRANSPORT SOLUTION COMPLETE FOR COMPONENT SPECIES NUMBER    1
     ------------------------------------------------------------

 TRANSPORT SOLUTION COMPLETE FOR ALL SPECIES, SORTING OUTPUT FOR CONCENTRATIONS AND MASS BALANCE
 ----------------------------------------------------------------------------------------------------
     TRANSPORT OUTPUT FOR COMPONENT SPECIES NUMBER    1
     ------------------------------------------------------------
 -------------------------------------------------------------------------------------
 
 SOLVING FOR HEAD 

 Outer-Iteration  Inner-Iteration  Backtracking  Number of        Incoming       Outgoing      Cutoff     Maximum Head Change      Maximum Head Change
     Number           Count           Flag       Backtracks       Residual       Residual      Residual            Value               Location
        1                             0             0          0.334304E-02     0.334304E-02   -1.00000    
        1               12                                                                                       0.206122E-03               3139           GWF-node number
        2                             0             0          0.756420E-06     0.756420E-06   -1.00000    
        2                3                                                                                      -0.149012E-05               3071           GWF-node number
     2 CALLS TO SPARSE MATRIX SOLVER PACKAGE  IN FLOW TIME STEP     104 STRESS PERIOD       2

 TOTAL OF       2OUTER ITERATIONS
  MAXIMUM CHANGE FOR EACH ITERATION:
   MAX. CHANGE        NODE  MAX. CHANGE        NODE  MAX. CHANGE        NODE  MAX. CHANGE        NODE  MAX. CHANGE        NODE
 ------------------------------------------------------------------------------------------------------------------------------------
   0.20612E-03,       3139 -0.14901E-05,       3071

 NO OUTPUT CONTROL FOR STRESS PERIOD        2   TIME STEP      104



          TIME SUMMARY AT END OF TIME STEP       104 IN STRESS PERIOD         2
                    SECONDS     MINUTES      HOURS       DAYS        YEARS
                    -----------------------------------------------------------
   TIME STEP LENGTH  86.400      1.4400     2.40000E-02 1.00000E-03 2.73785E-06
 STRESS PERIOD TIME  8985.6      149.76      2.4960     0.10400     2.84736E-04
         TOTAL TIME  95386.      1589.8      26.496      1.1040     3.02259E-03
1
 ------------------------------------------------------------------------------------------------------------
 
 SOLVING FOR TRANSPORT 

          SEQUENTIAL TRANSPORT ITERATION LOOP NUMBER    1
          -----------------------------------------------

 ------------------------------------------------------------------------------------------------------------------------
     1 CALLS TO SPARSE MATRIX SOLVER PACKAGE IN TRANSPORT TIME STEP     104 STRESS PERIOD       2 SPECIES  1

 TOTAL OF       1OUTER ITERATIONS
  MAXIMUM CHANGE FOR EACH ITERATION:
   MAX. CHANGE        NODE  MAX. CHANGE        NODE  MAX. CHANGE        NODE  MAX. CHANGE        NODE  MAX. CHANGE        NODE
 ------------------------------------------------------------------------------------------------------------------------------------
  -0.35224    ,       3140
     TRANSPORT SOLUTION COMPLETE FOR COMPONENT SPECIES NUMBER    1
     ------------------------------------------------------------

 TRANSPORT SOLUTION COMPLETE FOR ALL SPECIES, SORTING OUTPUT FOR CONCENTRATIONS AND MASS BALANCE
 ----------------------------------------------------------------------------------------------------
     TRANSPORT OUTPUT FOR COMPONENT SPECIES NUMBER    1
     ------------------------------------------------------------
 -------------------------------------------------------------------------------------
 
 SOLVING FOR HEAD 

 Outer-Iteration  Inner-Iteration  Backtracking  Number of        Incoming       Outgoing      Cutoff     Maximum Head Change      Maximum Head Change
     Number           Count           Flag       Backtracks       Residual       Residual      Residual            Value               Location
        1                             0             0          0.321410E-02     0.321410E-02   -1.00000    
        1               12                                                                                       0.203588E-03               3139           GWF-node number
        2                             0             0          0.720841E-06     0.720841E-06   -1.00000    
        2                3                                                                                       0.948756E-06               3048           GWF-node number
     2 CALLS TO SPARSE MATRIX SOLVER PACKAGE  IN FLOW TIME STEP     105 STRESS PERIOD       2

 TOTAL OF       2OUTER ITERATIONS
  MAXIMUM CHANGE FOR EACH ITERATION:
   MAX. CHANGE        NODE  MAX. CHANGE        NODE  MAX. CHANGE        NODE  MAX. CHANGE        NODE  MAX. CHANGE        NODE
 ------------------------------------------------------------------------------------------------------------------------------------
   0.20359E-03,       3139  0.94876E-06,       3048

 NO OUTPUT CONTROL FOR STRESS PERIOD        2   TIME STEP      105



          TIME SUMMARY AT END OF TIME STEP       105 IN STRESS PERIOD         2
                    SECONDS     MINUTES      HOURS       DAYS        YEARS
                    -----------------------------------------------------------
   TIME STEP LENGTH  86.400      1.4400     2.40000E-02 1.00000E-03 2.73785E-06
 STRESS PERIOD TIME  9072.0      151.20      2.5200     0.10500     2.87474E-04
         TOTAL TIME  95472.      1591.2      26.520      1.1050     3.02532E-03
1
 ------------------------------------------------------------------------------------------------------------
 
 SOLVING FOR TRANSPORT 

          SEQUENTIAL TRANSPORT ITERATION LOOP NUMBER    1
          -----------------------------------------------

 ------------------------------------------------------------------------------------------------------------------------
     1 CALLS TO SPARSE MATRIX SOLVER PACKAGE IN TRANSPORT TIME STEP     105 STRESS PERIOD       2 SPECIES  1

 TOTAL OF       1OUTER ITERATIONS
  MAXIMUM CHANGE FOR EACH ITERATION:
   MAX. CHANGE        NODE  MAX. CHANGE        NODE  MAX. CHANGE        NODE  MAX. CHANGE        NODE  MAX. CHANGE        NODE
 ------------------------------------------------------------------------------------------------------------------------------------
  -0.34936    ,       3140
     TRANSPORT SOLUTION COMPLETE FOR COMPONENT SPECIES NUMBER    1
     ------------------------------------------------------------

 TRANSPORT SOLUTION COMPLETE FOR ALL SPECIES, SORTING OUTPUT FOR CONCENTRATIONS AND MASS BALANCE
 ----------------------------------------------------------------------------------------------------
     TRANSPORT OUTPUT FOR COMPONENT SPECIES NUMBER    1
     ------------------------------------------------------------
 -------------------------------------------------------------------------------------
 
 SOLVING FOR HEAD 

 Outer-Iteration  Inner-Iteration  Backtracking  Number of        Incoming       Outgoing      Cutoff     Maximum Head Change      Maximum Head Change
     Number           Count           Flag       Backtracks       Residual       Residual      Residual            Value               Location
        1                             0             0          0.339906E-02     0.339906E-02   -1.00000    
        1               12                                                                                       0.203262E-03               3140           GWF-node number
        2                             0             0          0.114888E-05     0.114888E-05   -1.00000    
        2                1                                                                                      -0.803037E-06               2999           GWF-node number
     2 CALLS TO SPARSE MATRIX SOLVER PACKAGE  IN FLOW TIME STEP     106 STRESS PERIOD       2

 TOTAL OF       2OUTER ITERATIONS
  MAXIMUM CHANGE FOR EACH ITERATION:
   MAX. CHANGE        NODE  MAX. CHANGE        NODE  MAX. CHANGE        NODE  MAX. CHANGE        NODE  MAX. CHANGE        NODE
 ------------------------------------------------------------------------------------------------------------------------------------
   0.20326E-03,       3140 -0.80304E-06,       2999

 NO OUTPUT CONTROL FOR STRESS PERIOD        2   TIME STEP      106



          TIME SUMMARY AT END OF TIME STEP       106 IN STRESS PERIOD         2
                    SECONDS     MINUTES      HOURS       DAYS        YEARS
                    -----------------------------------------------------------
   TIME STEP LENGTH  86.400      1.4400     2.40000E-02 1.00000E-03 2.73785E-06
 STRESS PERIOD TIME  9158.4      152.64      2.5440     0.10600     2.90212E-04
         TOTAL TIME  95558.      1592.6      26.544      1.1060     3.02806E-03
1
 ------------------------------------------------------------------------------------------------------------
 
 SOLVING FOR TRANSPORT 

          SEQUENTIAL TRANSPORT ITERATION LOOP NUMBER    1
          -----------------------------------------------

 ------------------------------------------------------------------------------------------------------------------------
     1 CALLS TO SPARSE MATRIX SOLVER PACKAGE IN TRANSPORT TIME STEP     106 STRESS PERIOD       2 SPECIES  1

 TOTAL OF       1OUTER ITERATIONS
  MAXIMUM CHANGE FOR EACH ITERATION:
   MAX. CHANGE        NODE  MAX. CHANGE        NODE  MAX. CHANGE        NODE  MAX. CHANGE        NODE  MAX. CHANGE        NODE
 ------------------------------------------------------------------------------------------------------------------------------------
  -0.34843    ,       3141
     TRANSPORT SOLUTION COMPLETE FOR COMPONENT SPECIES NUMBER    1
     ------------------------------------------------------------

 TRANSPORT SOLUTION COMPLETE FOR ALL SPECIES, SORTING OUTPUT FOR CONCENTRATIONS AND MASS BALANCE
 ----------------------------------------------------------------------------------------------------
     TRANSPORT OUTPUT FOR COMPONENT SPECIES NUMBER    1
     ------------------------------------------------------------
 -------------------------------------------------------------------------------------
 
 SOLVING FOR HEAD 

 Outer-Iteration  Inner-Iteration  Backtracking  Number of        Incoming       Outgoing      Cutoff     Maximum Head Change      Maximum Head Change
     Number           Count           Flag       Backtracks       Residual       Residual      Residual            Value               Location
        1                             0             0          0.352477E-02     0.352477E-02   -1.00000    
        1               12                                                                                       0.202541E-03               3140           GWF-node number
        2                             0             0          0.316041E-05     0.316041E-05   -1.00000    
        2                2                                                                                      -0.166987E-05               3067           GWF-node number
     2 CALLS TO SPARSE MATRIX SOLVER PACKAGE  IN FLOW TIME STEP     107 STRESS PERIOD       2

 TOTAL OF       2OUTER ITERATIONS
  MAXIMUM CHANGE FOR EACH ITERATION:
   MAX. CHANGE        NODE  MAX. CHANGE        NODE  MAX. CHANGE        NODE  MAX. CHANGE        NODE  MAX. CHANGE        NODE
 ------------------------------------------------------------------------------------------------------------------------------------
   0.20254E-03,       3140 -0.16699E-05,       3067

 NO OUTPUT CONTROL FOR STRESS PERIOD        2   TIME STEP      107



          TIME SUMMARY AT END OF TIME STEP       107 IN STRESS PERIOD         2
                    SECONDS     MINUTES      HOURS       DAYS        YEARS
                    -----------------------------------------------------------
   TIME STEP LENGTH  86.400      1.4400     2.40000E-02 1.00000E-03 2.73785E-06
 STRESS PERIOD TIME  9244.8      154.08      2.5680     0.10700     2.92950E-04
         TOTAL TIME  95645.      1594.1      26.568      1.1070     3.03080E-03
1
 ------------------------------------------------------------------------------------------------------------
 
 SOLVING FOR TRANSPORT 

          SEQUENTIAL TRANSPORT ITERATION LOOP NUMBER    1
          -----------------------------------------------

 ------------------------------------------------------------------------------------------------------------------------
     1 CALLS TO SPARSE MATRIX SOLVER PACKAGE IN TRANSPORT TIME STEP     107 STRESS PERIOD       2 SPECIES  1

 TOTAL OF       1OUTER ITERATIONS
  MAXIMUM CHANGE FOR EACH ITERATION:
   MAX. CHANGE        NODE  MAX. CHANGE        NODE  MAX. CHANGE        NODE  MAX. CHANGE        NODE  MAX. CHANGE        NODE
 ------------------------------------------------------------------------------------------------------------------------------------
  -0.34245    ,       3141
     TRANSPORT SOLUTION COMPLETE FOR COMPONENT SPECIES NUMBER    1
     ------------------------------------------------------------

 TRANSPORT SOLUTION COMPLETE FOR ALL SPECIES, SORTING OUTPUT FOR CONCENTRATIONS AND MASS BALANCE
 ----------------------------------------------------------------------------------------------------
     TRANSPORT OUTPUT FOR COMPONENT SPECIES NUMBER    1
     ------------------------------------------------------------
 -------------------------------------------------------------------------------------
 
 SOLVING FOR HEAD 

 Outer-Iteration  Inner-Iteration  Backtracking  Number of        Incoming       Outgoing      Cutoff     Maximum Head Change      Maximum Head Change
     Number           Count           Flag       Backtracks       Residual       Residual      Residual            Value               Location
        1                             0             0          0.339865E-02     0.339865E-02   -1.00000    
        1               14                                                                                       0.196389E-03               3140           GWF-node number
        2                             0             0          0.244188E-06     0.244188E-06   -1.00000    
        2                1                                                                                      -0.523663E-06               3005           GWF-node number
     2 CALLS TO SPARSE MATRIX SOLVER PACKAGE  IN FLOW TIME STEP     108 STRESS PERIOD       2

 TOTAL OF       2OUTER ITERATIONS
  MAXIMUM CHANGE FOR EACH ITERATION:
   MAX. CHANGE        NODE  MAX. CHANGE        NODE  MAX. CHANGE        NODE  MAX. CHANGE        NODE  MAX. CHANGE        NODE
 ------------------------------------------------------------------------------------------------------------------------------------
   0.19639E-03,       3140 -0.52366E-06,       3005

 NO OUTPUT CONTROL FOR STRESS PERIOD        2   TIME STEP      108



          TIME SUMMARY AT END OF TIME STEP       108 IN STRESS PERIOD         2
                    SECONDS     MINUTES      HOURS       DAYS        YEARS
                    -----------------------------------------------------------
   TIME STEP LENGTH  86.400      1.4400     2.40000E-02 1.00000E-03 2.73785E-06
 STRESS PERIOD TIME  9331.2      155.52      2.5920     0.10800     2.95688E-04
         TOTAL TIME  95731.      1595.5      26.592      1.1080     3.03354E-03
1
 ------------------------------------------------------------------------------------------------------------
 
 SOLVING FOR TRANSPORT 

          SEQUENTIAL TRANSPORT ITERATION LOOP NUMBER    1
          -----------------------------------------------

 ------------------------------------------------------------------------------------------------------------------------
     1 CALLS TO SPARSE MATRIX SOLVER PACKAGE IN TRANSPORT TIME STEP     108 STRESS PERIOD       2 SPECIES  1

 TOTAL OF       1OUTER ITERATIONS
  MAXIMUM CHANGE FOR EACH ITERATION:
   MAX. CHANGE        NODE  MAX. CHANGE        NODE  MAX. CHANGE        NODE  MAX. CHANGE        NODE  MAX. CHANGE        NODE
 ------------------------------------------------------------------------------------------------------------------------------------
  -0.34123    ,       3141
     TRANSPORT SOLUTION COMPLETE FOR COMPONENT SPECIES NUMBER    1
     ------------------------------------------------------------

 TRANSPORT SOLUTION COMPLETE FOR ALL SPECIES, SORTING OUTPUT FOR CONCENTRATIONS AND MASS BALANCE
 ----------------------------------------------------------------------------------------------------
     TRANSPORT OUTPUT FOR COMPONENT SPECIES NUMBER    1
     ------------------------------------------------------------
 -------------------------------------------------------------------------------------
 
 SOLVING FOR HEAD 

 Outer-Iteration  Inner-Iteration  Backtracking  Number of        Incoming       Outgoing      Cutoff     Maximum Head Change      Maximum Head Change
     Number           Count           Flag       Backtracks       Residual       Residual      Residual            Value               Location
        1                             0             0          0.338392E-02     0.338392E-02   -1.00000    
        1               12                                                                                       0.199936E-03               3140           GWF-node number
        2                             0             0          0.167027E-05     0.167027E-05   -1.00000    
        2                6                                                                                      -0.163580E-05               3146           GWF-node number
     2 CALLS TO SPARSE MATRIX SOLVER PACKAGE  IN FLOW TIME STEP     109 STRESS PERIOD       2

 TOTAL OF       2OUTER ITERATIONS
  MAXIMUM CHANGE FOR EACH ITERATION:
   MAX. CHANGE        NODE  MAX. CHANGE        NODE  MAX. CHANGE        NODE  MAX. CHANGE        NODE  MAX. CHANGE        NODE
 ------------------------------------------------------------------------------------------------------------------------------------
   0.19994E-03,       3140 -0.16358E-05,       3146

 NO OUTPUT CONTROL FOR STRESS PERIOD        2   TIME STEP      109



          TIME SUMMARY AT END OF TIME STEP       109 IN STRESS PERIOD         2
                    SECONDS     MINUTES      HOURS       DAYS        YEARS
                    -----------------------------------------------------------
   TIME STEP LENGTH  86.400      1.4400     2.40000E-02 1.00000E-03 2.73785E-06
 STRESS PERIOD TIME  9417.6      156.96      2.6160     0.10900     2.98426E-04
         TOTAL TIME  95818.      1597.0      26.616      1.1090     3.03628E-03
1
 ------------------------------------------------------------------------------------------------------------
 
 SOLVING FOR TRANSPORT 

          SEQUENTIAL TRANSPORT ITERATION LOOP NUMBER    1
          -----------------------------------------------

 ------------------------------------------------------------------------------------------------------------------------
     1 CALLS TO SPARSE MATRIX SOLVER PACKAGE IN TRANSPORT TIME STEP     109 STRESS PERIOD       2 SPECIES  1

 TOTAL OF       1OUTER ITERATIONS
  MAXIMUM CHANGE FOR EACH ITERATION:
   MAX. CHANGE        NODE  MAX. CHANGE        NODE  MAX. CHANGE        NODE  MAX. CHANGE        NODE  MAX. CHANGE        NODE
 ------------------------------------------------------------------------------------------------------------------------------------
  -0.33596    ,       3141
     TRANSPORT SOLUTION COMPLETE FOR COMPONENT SPECIES NUMBER    1
     ------------------------------------------------------------

 TRANSPORT SOLUTION COMPLETE FOR ALL SPECIES, SORTING OUTPUT FOR CONCENTRATIONS AND MASS BALANCE
 ----------------------------------------------------------------------------------------------------
     TRANSPORT OUTPUT FOR COMPONENT SPECIES NUMBER    1
     ------------------------------------------------------------
 -------------------------------------------------------------------------------------
 
 SOLVING FOR HEAD 

 Outer-Iteration  Inner-Iteration  Backtracking  Number of        Incoming       Outgoing      Cutoff     Maximum Head Change      Maximum Head Change
     Number           Count           Flag       Backtracks       Residual       Residual      Residual            Value               Location
        1                             0             0          0.360664E-02     0.360664E-02   -1.00000    
        1               15                                                                                       0.195199E-03               3141           GWF-node number
        2                             0             0          0.102062E-06     0.102062E-06   -1.00000    
        2                2                                                                                      -0.105713E-05               3156           GWF-node number
     2 CALLS TO SPARSE MATRIX SOLVER PACKAGE  IN FLOW TIME STEP     110 STRESS PERIOD       2

 TOTAL OF       2OUTER ITERATIONS
  MAXIMUM CHANGE FOR EACH ITERATION:
   MAX. CHANGE        NODE  MAX. CHANGE        NODE  MAX. CHANGE        NODE  MAX. CHANGE        NODE  MAX. CHANGE        NODE
 ------------------------------------------------------------------------------------------------------------------------------------
   0.19520E-03,       3141 -0.10571E-05,       3156

 NO OUTPUT CONTROL FOR STRESS PERIOD        2   TIME STEP      110



          TIME SUMMARY AT END OF TIME STEP       110 IN STRESS PERIOD         2
                    SECONDS     MINUTES      HOURS       DAYS        YEARS
                    -----------------------------------------------------------
   TIME STEP LENGTH  86.400      1.4400     2.40000E-02 1.00000E-03 2.73785E-06
 STRESS PERIOD TIME  9504.0      158.40      2.6400     0.11000     3.01164E-04
         TOTAL TIME  95904.      1598.4      26.640      1.1100     3.03901E-03
1
 ------------------------------------------------------------------------------------------------------------
 
 SOLVING FOR TRANSPORT 

          SEQUENTIAL TRANSPORT ITERATION LOOP NUMBER    1
          -----------------------------------------------

 ------------------------------------------------------------------------------------------------------------------------
     1 CALLS TO SPARSE MATRIX SOLVER PACKAGE IN TRANSPORT TIME STEP     110 STRESS PERIOD       2 SPECIES  1

 TOTAL OF       1OUTER ITERATIONS
  MAXIMUM CHANGE FOR EACH ITERATION:
   MAX. CHANGE        NODE  MAX. CHANGE        NODE  MAX. CHANGE        NODE  MAX. CHANGE        NODE  MAX. CHANGE        NODE
 ------------------------------------------------------------------------------------------------------------------------------------
  -0.33523    ,       3142
     TRANSPORT SOLUTION COMPLETE FOR COMPONENT SPECIES NUMBER    1
     ------------------------------------------------------------

 TRANSPORT SOLUTION COMPLETE FOR ALL SPECIES, SORTING OUTPUT FOR CONCENTRATIONS AND MASS BALANCE
 ----------------------------------------------------------------------------------------------------
     TRANSPORT OUTPUT FOR COMPONENT SPECIES NUMBER    1
     ------------------------------------------------------------
 -------------------------------------------------------------------------------------
 
 SOLVING FOR HEAD 

 Outer-Iteration  Inner-Iteration  Backtracking  Number of        Incoming       Outgoing      Cutoff     Maximum Head Change      Maximum Head Change
     Number           Count           Flag       Backtracks       Residual       Residual      Residual            Value               Location
        1                             0             0          0.384063E-02     0.384063E-02   -1.00000    
        1               13                                                                                       0.195080E-03               3141           GWF-node number
        2                             0             0          0.257941E-06     0.257941E-06   -1.00000    
        2                3                                                                                      -0.945548E-06               3159           GWF-node number
     2 CALLS TO SPARSE MATRIX SOLVER PACKAGE  IN FLOW TIME STEP     111 STRESS PERIOD       2

 TOTAL OF       2OUTER ITERATIONS
  MAXIMUM CHANGE FOR EACH ITERATION:
   MAX. CHANGE        NODE  MAX. CHANGE        NODE  MAX. CHANGE        NODE  MAX. CHANGE        NODE  MAX. CHANGE        NODE
 ------------------------------------------------------------------------------------------------------------------------------------
   0.19508E-03,       3141 -0.94555E-06,       3159

 NO OUTPUT CONTROL FOR STRESS PERIOD        2   TIME STEP      111



          TIME SUMMARY AT END OF TIME STEP       111 IN STRESS PERIOD         2
                    SECONDS     MINUTES      HOURS       DAYS        YEARS
                    -----------------------------------------------------------
   TIME STEP LENGTH  86.400      1.4400     2.40000E-02 1.00000E-03 2.73785E-06
 STRESS PERIOD TIME  9590.4      159.84      2.6640     0.11100     3.03901E-04
         TOTAL TIME  95990.      1599.8      26.664      1.1110     3.04175E-03
1
 ------------------------------------------------------------------------------------------------------------
 
 SOLVING FOR TRANSPORT 

          SEQUENTIAL TRANSPORT ITERATION LOOP NUMBER    1
          -----------------------------------------------

 ------------------------------------------------------------------------------------------------------------------------
     1 CALLS TO SPARSE MATRIX SOLVER PACKAGE IN TRANSPORT TIME STEP     111 STRESS PERIOD       2 SPECIES  1

 TOTAL OF       1OUTER ITERATIONS
  MAXIMUM CHANGE FOR EACH ITERATION:
   MAX. CHANGE        NODE  MAX. CHANGE        NODE  MAX. CHANGE        NODE  MAX. CHANGE        NODE  MAX. CHANGE        NODE
 ------------------------------------------------------------------------------------------------------------------------------------
  -0.33174    ,       3142
     TRANSPORT SOLUTION COMPLETE FOR COMPONENT SPECIES NUMBER    1
     ------------------------------------------------------------

 TRANSPORT SOLUTION COMPLETE FOR ALL SPECIES, SORTING OUTPUT FOR CONCENTRATIONS AND MASS BALANCE
 ----------------------------------------------------------------------------------------------------
     TRANSPORT OUTPUT FOR COMPONENT SPECIES NUMBER    1
     ------------------------------------------------------------
 -------------------------------------------------------------------------------------
 
 SOLVING FOR HEAD 

 Outer-Iteration  Inner-Iteration  Backtracking  Number of        Incoming       Outgoing      Cutoff     Maximum Head Change      Maximum Head Change
     Number           Count           Flag       Backtracks       Residual       Residual      Residual            Value               Location
        1                             0             0          0.364189E-02     0.364189E-02   -1.00000    
        1               12                                                                                       0.191774E-03               3141           GWF-node number
        2                             0             0          0.669212E-06     0.669212E-06   -1.00000    
        2                2                                                                                       0.181188E-05               2881           GWF-node number
     2 CALLS TO SPARSE MATRIX SOLVER PACKAGE  IN FLOW TIME STEP     112 STRESS PERIOD       2

 TOTAL OF       2OUTER ITERATIONS
  MAXIMUM CHANGE FOR EACH ITERATION:
   MAX. CHANGE        NODE  MAX. CHANGE        NODE  MAX. CHANGE        NODE  MAX. CHANGE        NODE  MAX. CHANGE        NODE
 ------------------------------------------------------------------------------------------------------------------------------------
   0.19177E-03,       3141  0.18119E-05,       2881

 NO OUTPUT CONTROL FOR STRESS PERIOD        2   TIME STEP      112



          TIME SUMMARY AT END OF TIME STEP       112 IN STRESS PERIOD         2
                    SECONDS     MINUTES      HOURS       DAYS        YEARS
                    -----------------------------------------------------------
   TIME STEP LENGTH  86.400      1.4400     2.40000E-02 1.00000E-03 2.73785E-06
 STRESS PERIOD TIME  9676.8      161.28      2.6880     0.11200     3.06639E-04
         TOTAL TIME  96077.      1601.3      26.688      1.1120     3.04449E-03
1
 ------------------------------------------------------------------------------------------------------------
 
 SOLVING FOR TRANSPORT 

          SEQUENTIAL TRANSPORT ITERATION LOOP NUMBER    1
          -----------------------------------------------

 ------------------------------------------------------------------------------------------------------------------------
     1 CALLS TO SPARSE MATRIX SOLVER PACKAGE IN TRANSPORT TIME STEP     112 STRESS PERIOD       2 SPECIES  1

 TOTAL OF       1OUTER ITERATIONS
  MAXIMUM CHANGE FOR EACH ITERATION:
   MAX. CHANGE        NODE  MAX. CHANGE        NODE  MAX. CHANGE        NODE  MAX. CHANGE        NODE  MAX. CHANGE        NODE
 ------------------------------------------------------------------------------------------------------------------------------------
  -0.32950    ,       3142
     TRANSPORT SOLUTION COMPLETE FOR COMPONENT SPECIES NUMBER    1
     ------------------------------------------------------------

 TRANSPORT SOLUTION COMPLETE FOR ALL SPECIES, SORTING OUTPUT FOR CONCENTRATIONS AND MASS BALANCE
 ----------------------------------------------------------------------------------------------------
     TRANSPORT OUTPUT FOR COMPONENT SPECIES NUMBER    1
     ------------------------------------------------------------
 -------------------------------------------------------------------------------------
 
 SOLVING FOR HEAD 

 Outer-Iteration  Inner-Iteration  Backtracking  Number of        Incoming       Outgoing      Cutoff     Maximum Head Change      Maximum Head Change
     Number           Count           Flag       Backtracks       Residual       Residual      Residual            Value               Location
        1                             0             0          0.351527E-02     0.351527E-02   -1.00000    
        1               15                                                                                       0.187802E-03               3141           GWF-node number
        2                             0             0          0.890557E-07     0.890557E-07   -1.00000    
        2                3                                                                                       0.939240E-06               1288           GWF-node number
     2 CALLS TO SPARSE MATRIX SOLVER PACKAGE  IN FLOW TIME STEP     113 STRESS PERIOD       2

 TOTAL OF       2OUTER ITERATIONS
  MAXIMUM CHANGE FOR EACH ITERATION:
   MAX. CHANGE        NODE  MAX. CHANGE        NODE  MAX. CHANGE        NODE  MAX. CHANGE        NODE  MAX. CHANGE        NODE
 ------------------------------------------------------------------------------------------------------------------------------------
   0.18780E-03,       3141  0.93924E-06,       1288

 NO OUTPUT CONTROL FOR STRESS PERIOD        2   TIME STEP      113



          TIME SUMMARY AT END OF TIME STEP       113 IN STRESS PERIOD         2
                    SECONDS     MINUTES      HOURS       DAYS        YEARS
                    -----------------------------------------------------------
   TIME STEP LENGTH  86.400      1.4400     2.40000E-02 1.00000E-03 2.73785E-06
 STRESS PERIOD TIME  9763.2      162.72      2.7120     0.11300     3.09377E-04
         TOTAL TIME  96163.      1602.7      26.712      1.1130     3.04723E-03
1
 ------------------------------------------------------------------------------------------------------------
 
 SOLVING FOR TRANSPORT 

          SEQUENTIAL TRANSPORT ITERATION LOOP NUMBER    1
          -----------------------------------------------

 ------------------------------------------------------------------------------------------------------------------------
     1 CALLS TO SPARSE MATRIX SOLVER PACKAGE IN TRANSPORT TIME STEP     113 STRESS PERIOD       2 SPECIES  1

 TOTAL OF       1OUTER ITERATIONS
  MAXIMUM CHANGE FOR EACH ITERATION:
   MAX. CHANGE        NODE  MAX. CHANGE        NODE  MAX. CHANGE        NODE  MAX. CHANGE        NODE  MAX. CHANGE        NODE
 ------------------------------------------------------------------------------------------------------------------------------------
  -0.32619    ,       3142
     TRANSPORT SOLUTION COMPLETE FOR COMPONENT SPECIES NUMBER    1
     ------------------------------------------------------------

 TRANSPORT SOLUTION COMPLETE FOR ALL SPECIES, SORTING OUTPUT FOR CONCENTRATIONS AND MASS BALANCE
 ----------------------------------------------------------------------------------------------------
     TRANSPORT OUTPUT FOR COMPONENT SPECIES NUMBER    1
     ------------------------------------------------------------
 -------------------------------------------------------------------------------------
 
 SOLVING FOR HEAD 

 Outer-Iteration  Inner-Iteration  Backtracking  Number of        Incoming       Outgoing      Cutoff     Maximum Head Change      Maximum Head Change
     Number           Count           Flag       Backtracks       Residual       Residual      Residual            Value               Location
        1                             0             0          0.364801E-02     0.364801E-02   -1.00000    
        1               13                                                                                       0.188450E-03               3142           GWF-node number
        2                             0             0          0.436342E-06     0.436342E-06   -1.00000    
        2                1                                                                                      -0.761727E-06               3001           GWF-node number
     2 CALLS TO SPARSE MATRIX SOLVER PACKAGE  IN FLOW TIME STEP     114 STRESS PERIOD       2

 TOTAL OF       2OUTER ITERATIONS
  MAXIMUM CHANGE FOR EACH ITERATION:
   MAX. CHANGE        NODE  MAX. CHANGE        NODE  MAX. CHANGE        NODE  MAX. CHANGE        NODE  MAX. CHANGE        NODE
 ------------------------------------------------------------------------------------------------------------------------------------
   0.18845E-03,       3142 -0.76173E-06,       3001

 NO OUTPUT CONTROL FOR STRESS PERIOD        2   TIME STEP      114



          TIME SUMMARY AT END OF TIME STEP       114 IN STRESS PERIOD         2
                    SECONDS     MINUTES      HOURS       DAYS        YEARS
                    -----------------------------------------------------------
   TIME STEP LENGTH  86.400      1.4400     2.40000E-02 1.00000E-03 2.73785E-06
 STRESS PERIOD TIME  9849.6      164.16      2.7360     0.11400     3.12115E-04
         TOTAL TIME  96250.      1604.2      26.736      1.1140     3.04997E-03
1
 ------------------------------------------------------------------------------------------------------------
 
 SOLVING FOR TRANSPORT 

          SEQUENTIAL TRANSPORT ITERATION LOOP NUMBER    1
          -----------------------------------------------

 ------------------------------------------------------------------------------------------------------------------------
     1 CALLS TO SPARSE MATRIX SOLVER PACKAGE IN TRANSPORT TIME STEP     114 STRESS PERIOD       2 SPECIES  1

 TOTAL OF       1OUTER ITERATIONS
  MAXIMUM CHANGE FOR EACH ITERATION:
   MAX. CHANGE        NODE  MAX. CHANGE        NODE  MAX. CHANGE        NODE  MAX. CHANGE        NODE  MAX. CHANGE        NODE
 ------------------------------------------------------------------------------------------------------------------------------------
  -0.32378    ,       3143
     TRANSPORT SOLUTION COMPLETE FOR COMPONENT SPECIES NUMBER    1
     ------------------------------------------------------------

 TRANSPORT SOLUTION COMPLETE FOR ALL SPECIES, SORTING OUTPUT FOR CONCENTRATIONS AND MASS BALANCE
 ----------------------------------------------------------------------------------------------------
     TRANSPORT OUTPUT FOR COMPONENT SPECIES NUMBER    1
     ------------------------------------------------------------
 -------------------------------------------------------------------------------------
 
 SOLVING FOR HEAD 

 Outer-Iteration  Inner-Iteration  Backtracking  Number of        Incoming       Outgoing      Cutoff     Maximum Head Change      Maximum Head Change
     Number           Count           Flag       Backtracks       Residual       Residual      Residual            Value               Location
        1                             0             0          0.411237E-02     0.411237E-02   -1.00000    
        1               15                                                                                       0.184912E-03               3142           GWF-node number
        2                             0             0          0.859547E-07     0.859547E-07   -1.00000    
        2                3                                                                                       0.111839E-05               3051           GWF-node number
     2 CALLS TO SPARSE MATRIX SOLVER PACKAGE  IN FLOW TIME STEP     115 STRESS PERIOD       2

 TOTAL OF       2OUTER ITERATIONS
  MAXIMUM CHANGE FOR EACH ITERATION:
   MAX. CHANGE        NODE  MAX. CHANGE        NODE  MAX. CHANGE        NODE  MAX. CHANGE        NODE  MAX. CHANGE        NODE
 ------------------------------------------------------------------------------------------------------------------------------------
   0.18491E-03,       3142  0.11184E-05,       3051

 NO OUTPUT CONTROL FOR STRESS PERIOD        2   TIME STEP      115



          TIME SUMMARY AT END OF TIME STEP       115 IN STRESS PERIOD         2
                    SECONDS     MINUTES      HOURS       DAYS        YEARS
                    -----------------------------------------------------------
   TIME STEP LENGTH  86.400      1.4400     2.40000E-02 1.00000E-03 2.73785E-06
 STRESS PERIOD TIME  9936.0      165.60      2.7600     0.11500     3.14853E-04
         TOTAL TIME  96336.      1605.6      26.760      1.1150     3.05270E-03
1
 ------------------------------------------------------------------------------------------------------------
 
 SOLVING FOR TRANSPORT 

          SEQUENTIAL TRANSPORT ITERATION LOOP NUMBER    1
          -----------------------------------------------

 ------------------------------------------------------------------------------------------------------------------------
     1 CALLS TO SPARSE MATRIX SOLVER PACKAGE IN TRANSPORT TIME STEP     115 STRESS PERIOD       2 SPECIES  1

 TOTAL OF       1OUTER ITERATIONS
  MAXIMUM CHANGE FOR EACH ITERATION:
   MAX. CHANGE        NODE  MAX. CHANGE        NODE  MAX. CHANGE        NODE  MAX. CHANGE        NODE  MAX. CHANGE        NODE
 ------------------------------------------------------------------------------------------------------------------------------------
  -0.32077    ,       3143
     TRANSPORT SOLUTION COMPLETE FOR COMPONENT SPECIES NUMBER    1
     ------------------------------------------------------------

 TRANSPORT SOLUTION COMPLETE FOR ALL SPECIES, SORTING OUTPUT FOR CONCENTRATIONS AND MASS BALANCE
 ----------------------------------------------------------------------------------------------------
     TRANSPORT OUTPUT FOR COMPONENT SPECIES NUMBER    1
     ------------------------------------------------------------
 -------------------------------------------------------------------------------------
 
 SOLVING FOR HEAD 

 Outer-Iteration  Inner-Iteration  Backtracking  Number of        Incoming       Outgoing      Cutoff     Maximum Head Change      Maximum Head Change
     Number           Count           Flag       Backtracks       Residual       Residual      Residual            Value               Location
        1                             0             0          0.457685E-02     0.457685E-02   -1.00000    
        1               12                                                                                       0.184675E-03               3142           GWF-node number
        2                             0             0          0.280804E-06     0.280804E-06   -1.00000    
        2                1                                                                                      -0.658542E-06               3079           GWF-node number
     2 CALLS TO SPARSE MATRIX SOLVER PACKAGE  IN FLOW TIME STEP     116 STRESS PERIOD       2

 TOTAL OF       2OUTER ITERATIONS
  MAXIMUM CHANGE FOR EACH ITERATION:
   MAX. CHANGE        NODE  MAX. CHANGE        NODE  MAX. CHANGE        NODE  MAX. CHANGE        NODE  MAX. CHANGE        NODE
 ------------------------------------------------------------------------------------------------------------------------------------
   0.18468E-03,       3142 -0.65854E-06,       3079

 NO OUTPUT CONTROL FOR STRESS PERIOD        2   TIME STEP      116



          TIME SUMMARY AT END OF TIME STEP       116 IN STRESS PERIOD         2
                    SECONDS     MINUTES      HOURS       DAYS        YEARS
                    -----------------------------------------------------------
   TIME STEP LENGTH  86.400      1.4400     2.40000E-02 1.00000E-03 2.73785E-06
 STRESS PERIOD TIME  10022.      167.04      2.7840     0.11600     3.17591E-04
         TOTAL TIME  96422.      1607.0      26.784      1.1160     3.05544E-03
1
 ------------------------------------------------------------------------------------------------------------
 
 SOLVING FOR TRANSPORT 

          SEQUENTIAL TRANSPORT ITERATION LOOP NUMBER    1
          -----------------------------------------------

 ------------------------------------------------------------------------------------------------------------------------
     1 CALLS TO SPARSE MATRIX SOLVER PACKAGE IN TRANSPORT TIME STEP     116 STRESS PERIOD       2 SPECIES  1

 TOTAL OF       1OUTER ITERATIONS
  MAXIMUM CHANGE FOR EACH ITERATION:
   MAX. CHANGE        NODE  MAX. CHANGE        NODE  MAX. CHANGE        NODE  MAX. CHANGE        NODE  MAX. CHANGE        NODE
 ------------------------------------------------------------------------------------------------------------------------------------
  -0.31820    ,       3143
     TRANSPORT SOLUTION COMPLETE FOR COMPONENT SPECIES NUMBER    1
     ------------------------------------------------------------

 TRANSPORT SOLUTION COMPLETE FOR ALL SPECIES, SORTING OUTPUT FOR CONCENTRATIONS AND MASS BALANCE
 ----------------------------------------------------------------------------------------------------
     TRANSPORT OUTPUT FOR COMPONENT SPECIES NUMBER    1
     ------------------------------------------------------------
 -------------------------------------------------------------------------------------
 
 SOLVING FOR HEAD 

 Outer-Iteration  Inner-Iteration  Backtracking  Number of        Incoming       Outgoing      Cutoff     Maximum Head Change      Maximum Head Change
     Number           Count           Flag       Backtracks       Residual       Residual      Residual            Value               Location
        1                             0             0          0.436045E-02     0.436045E-02   -1.00000    
        1               12                                                                                       0.182055E-03               3143           GWF-node number
        2                             0             0          0.394889E-06     0.394889E-06   -1.00000    
        2                1                                                                                      -0.596052E-06               3000           GWF-node number
     2 CALLS TO SPARSE MATRIX SOLVER PACKAGE  IN FLOW TIME STEP     117 STRESS PERIOD       2

 TOTAL OF       2OUTER ITERATIONS
  MAXIMUM CHANGE FOR EACH ITERATION:
   MAX. CHANGE        NODE  MAX. CHANGE        NODE  MAX. CHANGE        NODE  MAX. CHANGE        NODE  MAX. CHANGE        NODE
 ------------------------------------------------------------------------------------------------------------------------------------
   0.18206E-03,       3143 -0.59605E-06,       3000

 NO OUTPUT CONTROL FOR STRESS PERIOD        2   TIME STEP      117



          TIME SUMMARY AT END OF TIME STEP       117 IN STRESS PERIOD         2
                    SECONDS     MINUTES      HOURS       DAYS        YEARS
                    -----------------------------------------------------------
   TIME STEP LENGTH  86.400      1.4400     2.40000E-02 1.00000E-03 2.73785E-06
 STRESS PERIOD TIME  10109.      168.48      2.8080     0.11700     3.20329E-04
         TOTAL TIME  96509.      1608.5      26.808      1.1170     3.05818E-03
1
 ------------------------------------------------------------------------------------------------------------
 
 SOLVING FOR TRANSPORT 

          SEQUENTIAL TRANSPORT ITERATION LOOP NUMBER    1
          -----------------------------------------------

 ------------------------------------------------------------------------------------------------------------------------
     1 CALLS TO SPARSE MATRIX SOLVER PACKAGE IN TRANSPORT TIME STEP     117 STRESS PERIOD       2 SPECIES  1

 TOTAL OF       1OUTER ITERATIONS
  MAXIMUM CHANGE FOR EACH ITERATION:
   MAX. CHANGE        NODE  MAX. CHANGE        NODE  MAX. CHANGE        NODE  MAX. CHANGE        NODE  MAX. CHANGE        NODE
 ------------------------------------------------------------------------------------------------------------------------------------
  -0.31472    ,       3143
     TRANSPORT SOLUTION COMPLETE FOR COMPONENT SPECIES NUMBER    1
     ------------------------------------------------------------

 TRANSPORT SOLUTION COMPLETE FOR ALL SPECIES, SORTING OUTPUT FOR CONCENTRATIONS AND MASS BALANCE
 ----------------------------------------------------------------------------------------------------
     TRANSPORT OUTPUT FOR COMPONENT SPECIES NUMBER    1
     ------------------------------------------------------------
 -------------------------------------------------------------------------------------
 
 SOLVING FOR HEAD 

 Outer-Iteration  Inner-Iteration  Backtracking  Number of        Incoming       Outgoing      Cutoff     Maximum Head Change      Maximum Head Change
     Number           Count           Flag       Backtracks       Residual       Residual      Residual            Value               Location
        1                             0             0          0.488658E-02     0.488658E-02   -1.00000    
        1               12                                                                                       0.179474E-03               3143           GWF-node number
        2                             0             0          0.299272E-06     0.299272E-06   -1.00000    
        2                1                                                                                      -0.878972E-06               3086           GWF-node number
     2 CALLS TO SPARSE MATRIX SOLVER PACKAGE  IN FLOW TIME STEP     118 STRESS PERIOD       2

 TOTAL OF       2OUTER ITERATIONS
  MAXIMUM CHANGE FOR EACH ITERATION:
   MAX. CHANGE        NODE  MAX. CHANGE        NODE  MAX. CHANGE        NODE  MAX. CHANGE        NODE  MAX. CHANGE        NODE
 ------------------------------------------------------------------------------------------------------------------------------------
   0.17947E-03,       3143 -0.87897E-06,       3086

 NO OUTPUT CONTROL FOR STRESS PERIOD        2   TIME STEP      118



          TIME SUMMARY AT END OF TIME STEP       118 IN STRESS PERIOD         2
                    SECONDS     MINUTES      HOURS       DAYS        YEARS
                    -----------------------------------------------------------
   TIME STEP LENGTH  86.400      1.4400     2.40000E-02 1.00000E-03 2.73785E-06
 STRESS PERIOD TIME  10195.      169.92      2.8320     0.11800     3.23066E-04
         TOTAL TIME  96595.      1609.9      26.832      1.1180     3.06092E-03
1
 ------------------------------------------------------------------------------------------------------------
 
 SOLVING FOR TRANSPORT 

          SEQUENTIAL TRANSPORT ITERATION LOOP NUMBER    1
          -----------------------------------------------

 ------------------------------------------------------------------------------------------------------------------------
     1 CALLS TO SPARSE MATRIX SOLVER PACKAGE IN TRANSPORT TIME STEP     118 STRESS PERIOD       2 SPECIES  1

 TOTAL OF       1OUTER ITERATIONS
  MAXIMUM CHANGE FOR EACH ITERATION:
   MAX. CHANGE        NODE  MAX. CHANGE        NODE  MAX. CHANGE        NODE  MAX. CHANGE        NODE  MAX. CHANGE        NODE
 ------------------------------------------------------------------------------------------------------------------------------------
  -0.31207    ,       3144
     TRANSPORT SOLUTION COMPLETE FOR COMPONENT SPECIES NUMBER    1
     ------------------------------------------------------------

 TRANSPORT SOLUTION COMPLETE FOR ALL SPECIES, SORTING OUTPUT FOR CONCENTRATIONS AND MASS BALANCE
 ----------------------------------------------------------------------------------------------------
     TRANSPORT OUTPUT FOR COMPONENT SPECIES NUMBER    1
     ------------------------------------------------------------
 -------------------------------------------------------------------------------------
 
 SOLVING FOR HEAD 

 Outer-Iteration  Inner-Iteration  Backtracking  Number of        Incoming       Outgoing      Cutoff     Maximum Head Change      Maximum Head Change
     Number           Count           Flag       Backtracks       Residual       Residual      Residual            Value               Location
        1                             0             0          0.380929E-02     0.380929E-02   -1.00000    
        1               12                                                                                       0.179214E-03               3143           GWF-node number
        2                             0             0          0.992206E-06     0.992206E-06   -1.00000    
        2                2                                                                                      -0.167672E-05               3072           GWF-node number
     2 CALLS TO SPARSE MATRIX SOLVER PACKAGE  IN FLOW TIME STEP     119 STRESS PERIOD       2

 TOTAL OF       2OUTER ITERATIONS
  MAXIMUM CHANGE FOR EACH ITERATION:
   MAX. CHANGE        NODE  MAX. CHANGE        NODE  MAX. CHANGE        NODE  MAX. CHANGE        NODE  MAX. CHANGE        NODE
 ------------------------------------------------------------------------------------------------------------------------------------
   0.17921E-03,       3143 -0.16767E-05,       3072

 NO OUTPUT CONTROL FOR STRESS PERIOD        2   TIME STEP      119



          TIME SUMMARY AT END OF TIME STEP       119 IN STRESS PERIOD         2
                    SECONDS     MINUTES      HOURS       DAYS        YEARS
                    -----------------------------------------------------------
   TIME STEP LENGTH  86.400      1.4400     2.40000E-02 1.00000E-03 2.73785E-06
 STRESS PERIOD TIME  10282.      171.36      2.8560     0.11900     3.25804E-04
         TOTAL TIME  96682.      1611.4      26.856      1.1190     3.06365E-03
1
 ------------------------------------------------------------------------------------------------------------
 
 SOLVING FOR TRANSPORT 

          SEQUENTIAL TRANSPORT ITERATION LOOP NUMBER    1
          -----------------------------------------------

 ------------------------------------------------------------------------------------------------------------------------
     1 CALLS TO SPARSE MATRIX SOLVER PACKAGE IN TRANSPORT TIME STEP     119 STRESS PERIOD       2 SPECIES  1

 TOTAL OF       1OUTER ITERATIONS
  MAXIMUM CHANGE FOR EACH ITERATION:
   MAX. CHANGE        NODE  MAX. CHANGE        NODE  MAX. CHANGE        NODE  MAX. CHANGE        NODE  MAX. CHANGE        NODE
 ------------------------------------------------------------------------------------------------------------------------------------
  -0.30891    ,       3144
     TRANSPORT SOLUTION COMPLETE FOR COMPONENT SPECIES NUMBER    1
     ------------------------------------------------------------

 TRANSPORT SOLUTION COMPLETE FOR ALL SPECIES, SORTING OUTPUT FOR CONCENTRATIONS AND MASS BALANCE
 ----------------------------------------------------------------------------------------------------
     TRANSPORT OUTPUT FOR COMPONENT SPECIES NUMBER    1
     ------------------------------------------------------------
 -------------------------------------------------------------------------------------
 
 SOLVING FOR HEAD 

 Outer-Iteration  Inner-Iteration  Backtracking  Number of        Incoming       Outgoing      Cutoff     Maximum Head Change      Maximum Head Change
     Number           Count           Flag       Backtracks       Residual       Residual      Residual            Value               Location
        1                             0             0          0.489668E-02     0.489668E-02   -1.00000    
        1               12                                                                                       0.175829E-03               3143           GWF-node number
        2                             0             0          0.825423E-06     0.825423E-06   -1.00000    
        2                4                                                                                      -0.697900E-06               2998           GWF-node number
     2 CALLS TO SPARSE MATRIX SOLVER PACKAGE  IN FLOW TIME STEP     120 STRESS PERIOD       2

 TOTAL OF       2OUTER ITERATIONS
  MAXIMUM CHANGE FOR EACH ITERATION:
   MAX. CHANGE        NODE  MAX. CHANGE        NODE  MAX. CHANGE        NODE  MAX. CHANGE        NODE  MAX. CHANGE        NODE
 ------------------------------------------------------------------------------------------------------------------------------------
   0.17583E-03,       3143 -0.69790E-06,       2998

 NO OUTPUT CONTROL FOR STRESS PERIOD        2   TIME STEP      120



          TIME SUMMARY AT END OF TIME STEP       120 IN STRESS PERIOD         2
                    SECONDS     MINUTES      HOURS       DAYS        YEARS
                    -----------------------------------------------------------
   TIME STEP LENGTH  86.400      1.4400     2.40000E-02 1.00000E-03 2.73785E-06
 STRESS PERIOD TIME  10368.      172.80      2.8800     0.12000     3.28542E-04
         TOTAL TIME  96768.      1612.8      26.880      1.1200     3.06639E-03
1
 ------------------------------------------------------------------------------------------------------------
 
 SOLVING FOR TRANSPORT 

          SEQUENTIAL TRANSPORT ITERATION LOOP NUMBER    1
          -----------------------------------------------

 ------------------------------------------------------------------------------------------------------------------------
     1 CALLS TO SPARSE MATRIX SOLVER PACKAGE IN TRANSPORT TIME STEP     120 STRESS PERIOD       2 SPECIES  1

 TOTAL OF       1OUTER ITERATIONS
  MAXIMUM CHANGE FOR EACH ITERATION:
   MAX. CHANGE        NODE  MAX. CHANGE        NODE  MAX. CHANGE        NODE  MAX. CHANGE        NODE  MAX. CHANGE        NODE
 ------------------------------------------------------------------------------------------------------------------------------------
  -0.30710    ,       3144
     TRANSPORT SOLUTION COMPLETE FOR COMPONENT SPECIES NUMBER    1
     ------------------------------------------------------------

 TRANSPORT SOLUTION COMPLETE FOR ALL SPECIES, SORTING OUTPUT FOR CONCENTRATIONS AND MASS BALANCE
 ----------------------------------------------------------------------------------------------------
     TRANSPORT OUTPUT FOR COMPONENT SPECIES NUMBER    1
     ------------------------------------------------------------
 -------------------------------------------------------------------------------------
 
 SOLVING FOR HEAD 

 Outer-Iteration  Inner-Iteration  Backtracking  Number of        Incoming       Outgoing      Cutoff     Maximum Head Change      Maximum Head Change
     Number           Count           Flag       Backtracks       Residual       Residual      Residual            Value               Location
        1                             0             0          0.645202E-02     0.645202E-02   -1.00000    
        1               14                                                                                       0.173711E-03               3144           GWF-node number
        2                             0             0          0.879750E-07     0.879750E-07   -1.00000    
        2                1                                                                                      -0.568292E-06               3151           GWF-node number
     2 CALLS TO SPARSE MATRIX SOLVER PACKAGE  IN FLOW TIME STEP     121 STRESS PERIOD       2

 TOTAL OF       2OUTER ITERATIONS
  MAXIMUM CHANGE FOR EACH ITERATION:
   MAX. CHANGE        NODE  MAX. CHANGE        NODE  MAX. CHANGE        NODE  MAX. CHANGE        NODE  MAX. CHANGE        NODE
 ------------------------------------------------------------------------------------------------------------------------------------
   0.17371E-03,       3144 -0.56829E-06,       3151

 NO OUTPUT CONTROL FOR STRESS PERIOD        2   TIME STEP      121



          TIME SUMMARY AT END OF TIME STEP       121 IN STRESS PERIOD         2
                    SECONDS     MINUTES      HOURS       DAYS        YEARS
                    -----------------------------------------------------------
   TIME STEP LENGTH  86.400      1.4400     2.40000E-02 1.00000E-03 2.73785E-06
 STRESS PERIOD TIME  10454.      174.24      2.9040     0.12100     3.31280E-04
         TOTAL TIME  96854.      1614.2      26.904      1.1210     3.06913E-03
1
 ------------------------------------------------------------------------------------------------------------
 
 SOLVING FOR TRANSPORT 

          SEQUENTIAL TRANSPORT ITERATION LOOP NUMBER    1
          -----------------------------------------------

 ------------------------------------------------------------------------------------------------------------------------
     1 CALLS TO SPARSE MATRIX SOLVER PACKAGE IN TRANSPORT TIME STEP     121 STRESS PERIOD       2 SPECIES  1

 TOTAL OF       1OUTER ITERATIONS
  MAXIMUM CHANGE FOR EACH ITERATION:
   MAX. CHANGE        NODE  MAX. CHANGE        NODE  MAX. CHANGE        NODE  MAX. CHANGE        NODE  MAX. CHANGE        NODE
 ------------------------------------------------------------------------------------------------------------------------------------
  -0.30334    ,       3144
     TRANSPORT SOLUTION COMPLETE FOR COMPONENT SPECIES NUMBER    1
     ------------------------------------------------------------

 TRANSPORT SOLUTION COMPLETE FOR ALL SPECIES, SORTING OUTPUT FOR CONCENTRATIONS AND MASS BALANCE
 ----------------------------------------------------------------------------------------------------
     TRANSPORT OUTPUT FOR COMPONENT SPECIES NUMBER    1
     ------------------------------------------------------------
 -------------------------------------------------------------------------------------
 
 SOLVING FOR HEAD 

 Outer-Iteration  Inner-Iteration  Backtracking  Number of        Incoming       Outgoing      Cutoff     Maximum Head Change      Maximum Head Change
     Number           Count           Flag       Backtracks       Residual       Residual      Residual            Value               Location
        1                             0             0          0.560641E-02     0.560641E-02   -1.00000    
        1               11                                                                                       0.173686E-03               3144           GWF-node number
        2                             0             0          0.102452E-05     0.102452E-05   -1.00000    
        2                2                                                                                       0.133791E-05               2801           GWF-node number
     2 CALLS TO SPARSE MATRIX SOLVER PACKAGE  IN FLOW TIME STEP     122 STRESS PERIOD       2

 TOTAL OF       2OUTER ITERATIONS
  MAXIMUM CHANGE FOR EACH ITERATION:
   MAX. CHANGE        NODE  MAX. CHANGE        NODE  MAX. CHANGE        NODE  MAX. CHANGE        NODE  MAX. CHANGE        NODE
 ------------------------------------------------------------------------------------------------------------------------------------
   0.17369E-03,       3144  0.13379E-05,       2801

 NO OUTPUT CONTROL FOR STRESS PERIOD        2   TIME STEP      122



          TIME SUMMARY AT END OF TIME STEP       122 IN STRESS PERIOD         2
                    SECONDS     MINUTES      HOURS       DAYS        YEARS
                    -----------------------------------------------------------
   TIME STEP LENGTH  86.400      1.4400     2.40000E-02 1.00000E-03 2.73785E-06
 STRESS PERIOD TIME  10541.      175.68      2.9280     0.12200     3.34018E-04
         TOTAL TIME  96941.      1615.7      26.928      1.1220     3.07187E-03
1
 ------------------------------------------------------------------------------------------------------------
 
 SOLVING FOR TRANSPORT 

          SEQUENTIAL TRANSPORT ITERATION LOOP NUMBER    1
          -----------------------------------------------

 ------------------------------------------------------------------------------------------------------------------------
     1 CALLS TO SPARSE MATRIX SOLVER PACKAGE IN TRANSPORT TIME STEP     122 STRESS PERIOD       2 SPECIES  1

 TOTAL OF       1OUTER ITERATIONS
  MAXIMUM CHANGE FOR EACH ITERATION:
   MAX. CHANGE        NODE  MAX. CHANGE        NODE  MAX. CHANGE        NODE  MAX. CHANGE        NODE  MAX. CHANGE        NODE
 ------------------------------------------------------------------------------------------------------------------------------------
  -0.30059    ,       3145
     TRANSPORT SOLUTION COMPLETE FOR COMPONENT SPECIES NUMBER    1
     ------------------------------------------------------------

 TRANSPORT SOLUTION COMPLETE FOR ALL SPECIES, SORTING OUTPUT FOR CONCENTRATIONS AND MASS BALANCE
 ----------------------------------------------------------------------------------------------------
     TRANSPORT OUTPUT FOR COMPONENT SPECIES NUMBER    1
     ------------------------------------------------------------
 -------------------------------------------------------------------------------------
 
 SOLVING FOR HEAD 

 Outer-Iteration  Inner-Iteration  Backtracking  Number of        Incoming       Outgoing      Cutoff     Maximum Head Change      Maximum Head Change
     Number           Count           Flag       Backtracks       Residual       Residual      Residual            Value               Location
        1                             0             0          0.615653E-02     0.615653E-02   -1.00000    
        1               12                                                                                       0.169033E-03               3144           GWF-node number
        2                             0             0          0.750565E-06     0.750565E-06   -1.00000    
        2                3                                                                                      -0.638157E-06               2998           GWF-node number
     2 CALLS TO SPARSE MATRIX SOLVER PACKAGE  IN FLOW TIME STEP     123 STRESS PERIOD       2

 TOTAL OF       2OUTER ITERATIONS
  MAXIMUM CHANGE FOR EACH ITERATION:
   MAX. CHANGE        NODE  MAX. CHANGE        NODE  MAX. CHANGE        NODE  MAX. CHANGE        NODE  MAX. CHANGE        NODE
 ------------------------------------------------------------------------------------------------------------------------------------
   0.16903E-03,       3144 -0.63816E-06,       2998

 NO OUTPUT CONTROL FOR STRESS PERIOD        2   TIME STEP      123



          TIME SUMMARY AT END OF TIME STEP       123 IN STRESS PERIOD         2
                    SECONDS     MINUTES      HOURS       DAYS        YEARS
                    -----------------------------------------------------------
   TIME STEP LENGTH  86.400      1.4400     2.40000E-02 1.00000E-03 2.73785E-06
 STRESS PERIOD TIME  10627.      177.12      2.9520     0.12300     3.36756E-04
         TOTAL TIME  97027.      1617.1      26.952      1.1230     3.07461E-03
1
 ------------------------------------------------------------------------------------------------------------
 
 SOLVING FOR TRANSPORT 

          SEQUENTIAL TRANSPORT ITERATION LOOP NUMBER    1
          -----------------------------------------------

 ------------------------------------------------------------------------------------------------------------------------
     1 CALLS TO SPARSE MATRIX SOLVER PACKAGE IN TRANSPORT TIME STEP     123 STRESS PERIOD       2 SPECIES  1

 TOTAL OF       1OUTER ITERATIONS
  MAXIMUM CHANGE FOR EACH ITERATION:
   MAX. CHANGE        NODE  MAX. CHANGE        NODE  MAX. CHANGE        NODE  MAX. CHANGE        NODE  MAX. CHANGE        NODE
 ------------------------------------------------------------------------------------------------------------------------------------
  -0.29808    ,       3145
     TRANSPORT SOLUTION COMPLETE FOR COMPONENT SPECIES NUMBER    1
     ------------------------------------------------------------

 TRANSPORT SOLUTION COMPLETE FOR ALL SPECIES, SORTING OUTPUT FOR CONCENTRATIONS AND MASS BALANCE
 ----------------------------------------------------------------------------------------------------
     TRANSPORT OUTPUT FOR COMPONENT SPECIES NUMBER    1
     ------------------------------------------------------------
 -------------------------------------------------------------------------------------
 
 SOLVING FOR HEAD 

 Outer-Iteration  Inner-Iteration  Backtracking  Number of        Incoming       Outgoing      Cutoff     Maximum Head Change      Maximum Head Change
     Number           Count           Flag       Backtracks       Residual       Residual      Residual            Value               Location
        1                             0             0          0.917943E-02     0.917943E-02   -1.00000    
        1               12                                                                                       0.170123E-03               3144           GWF-node number
        2                             0             0          0.785283E-06     0.785283E-06   -1.00000    
        2                2                                                                                      -0.130520E-05               3002           GWF-node number
     2 CALLS TO SPARSE MATRIX SOLVER PACKAGE  IN FLOW TIME STEP     124 STRESS PERIOD       2

 TOTAL OF       2OUTER ITERATIONS
  MAXIMUM CHANGE FOR EACH ITERATION:
   MAX. CHANGE        NODE  MAX. CHANGE        NODE  MAX. CHANGE        NODE  MAX. CHANGE        NODE  MAX. CHANGE        NODE
 ------------------------------------------------------------------------------------------------------------------------------------
   0.17012E-03,       3144 -0.13052E-05,       3002

 NO OUTPUT CONTROL FOR STRESS PERIOD        2   TIME STEP      124



          TIME SUMMARY AT END OF TIME STEP       124 IN STRESS PERIOD         2
                    SECONDS     MINUTES      HOURS       DAYS        YEARS
                    -----------------------------------------------------------
   TIME STEP LENGTH  86.400      1.4400     2.40000E-02 1.00000E-03 2.73785E-06
 STRESS PERIOD TIME  10714.      178.56      2.9760     0.12400     3.39494E-04
         TOTAL TIME  97114.      1618.6      26.976      1.1240     3.07734E-03
1
 ------------------------------------------------------------------------------------------------------------
 
 SOLVING FOR TRANSPORT 

          SEQUENTIAL TRANSPORT ITERATION LOOP NUMBER    1
          -----------------------------------------------

 ------------------------------------------------------------------------------------------------------------------------
     1 CALLS TO SPARSE MATRIX SOLVER PACKAGE IN TRANSPORT TIME STEP     124 STRESS PERIOD       2 SPECIES  1

 TOTAL OF       1OUTER ITERATIONS
  MAXIMUM CHANGE FOR EACH ITERATION:
   MAX. CHANGE        NODE  MAX. CHANGE        NODE  MAX. CHANGE        NODE  MAX. CHANGE        NODE  MAX. CHANGE        NODE
 ------------------------------------------------------------------------------------------------------------------------------------
  -0.29515    ,       3145
     TRANSPORT SOLUTION COMPLETE FOR COMPONENT SPECIES NUMBER    1
     ------------------------------------------------------------

 TRANSPORT SOLUTION COMPLETE FOR ALL SPECIES, SORTING OUTPUT FOR CONCENTRATIONS AND MASS BALANCE
 ----------------------------------------------------------------------------------------------------
     TRANSPORT OUTPUT FOR COMPONENT SPECIES NUMBER    1
     ------------------------------------------------------------
 -------------------------------------------------------------------------------------
 
 SOLVING FOR HEAD 

 Outer-Iteration  Inner-Iteration  Backtracking  Number of        Incoming       Outgoing      Cutoff     Maximum Head Change      Maximum Head Change
     Number           Count           Flag       Backtracks       Residual       Residual      Residual            Value               Location
        1                             0             0          0.662199E-02     0.662199E-02   -1.00000    
        1               14                                                                                       0.165932E-03               3145           GWF-node number
        2                             0             0          0.111216E-06     0.111216E-06   -1.00000    
        2                3                                                                                       0.744125E-06               3054           GWF-node number
     2 CALLS TO SPARSE MATRIX SOLVER PACKAGE  IN FLOW TIME STEP     125 STRESS PERIOD       2

 TOTAL OF       2OUTER ITERATIONS
  MAXIMUM CHANGE FOR EACH ITERATION:
   MAX. CHANGE        NODE  MAX. CHANGE        NODE  MAX. CHANGE        NODE  MAX. CHANGE        NODE  MAX. CHANGE        NODE
 ------------------------------------------------------------------------------------------------------------------------------------
   0.16593E-03,       3145  0.74412E-06,       3054

 NO OUTPUT CONTROL FOR STRESS PERIOD        2   TIME STEP      125



          TIME SUMMARY AT END OF TIME STEP       125 IN STRESS PERIOD         2
                    SECONDS     MINUTES      HOURS       DAYS        YEARS
                    -----------------------------------------------------------
   TIME STEP LENGTH  86.400      1.4400     2.40000E-02 1.00000E-03 2.73785E-06
 STRESS PERIOD TIME  10800.      180.00      3.0000     0.12500     3.42231E-04
         TOTAL TIME  97200.      1620.0      27.000      1.1250     3.08008E-03
1
 ------------------------------------------------------------------------------------------------------------
 
 SOLVING FOR TRANSPORT 

          SEQUENTIAL TRANSPORT ITERATION LOOP NUMBER    1
          -----------------------------------------------

 ------------------------------------------------------------------------------------------------------------------------
     1 CALLS TO SPARSE MATRIX SOLVER PACKAGE IN TRANSPORT TIME STEP     125 STRESS PERIOD       2 SPECIES  1

 TOTAL OF       1OUTER ITERATIONS
  MAXIMUM CHANGE FOR EACH ITERATION:
   MAX. CHANGE        NODE  MAX. CHANGE        NODE  MAX. CHANGE        NODE  MAX. CHANGE        NODE  MAX. CHANGE        NODE
 ------------------------------------------------------------------------------------------------------------------------------------
  -0.29251    ,       3145
     TRANSPORT SOLUTION COMPLETE FOR COMPONENT SPECIES NUMBER    1
     ------------------------------------------------------------

 TRANSPORT SOLUTION COMPLETE FOR ALL SPECIES, SORTING OUTPUT FOR CONCENTRATIONS AND MASS BALANCE
 ----------------------------------------------------------------------------------------------------
     TRANSPORT OUTPUT FOR COMPONENT SPECIES NUMBER    1
     ------------------------------------------------------------
 -------------------------------------------------------------------------------------
 
 SOLVING FOR HEAD 

 Outer-Iteration  Inner-Iteration  Backtracking  Number of        Incoming       Outgoing      Cutoff     Maximum Head Change      Maximum Head Change
     Number           Count           Flag       Backtracks       Residual       Residual      Residual            Value               Location
        1                             0             0          0.528513E-02     0.528513E-02   -1.00000    
        1               12                                                                                       0.166518E-03               3145           GWF-node number
        2                             0             0          0.455062E-06     0.455062E-06   -1.00000    
        2                3                                                                                       0.105632E-05               3055           GWF-node number
     2 CALLS TO SPARSE MATRIX SOLVER PACKAGE  IN FLOW TIME STEP     126 STRESS PERIOD       2

 TOTAL OF       2OUTER ITERATIONS
  MAXIMUM CHANGE FOR EACH ITERATION:
   MAX. CHANGE        NODE  MAX. CHANGE        NODE  MAX. CHANGE        NODE  MAX. CHANGE        NODE  MAX. CHANGE        NODE
 ------------------------------------------------------------------------------------------------------------------------------------
   0.16652E-03,       3145  0.10563E-05,       3055

 NO OUTPUT CONTROL FOR STRESS PERIOD        2   TIME STEP      126



          TIME SUMMARY AT END OF TIME STEP       126 IN STRESS PERIOD         2
                    SECONDS     MINUTES      HOURS       DAYS        YEARS
                    -----------------------------------------------------------
   TIME STEP LENGTH  86.400      1.4400     2.40000E-02 1.00000E-03 2.73785E-06
 STRESS PERIOD TIME  10886.      181.44      3.0240     0.12600     3.44969E-04
         TOTAL TIME  97286.      1621.4      27.024      1.1260     3.08282E-03
1
 ------------------------------------------------------------------------------------------------------------
 
 SOLVING FOR TRANSPORT 

          SEQUENTIAL TRANSPORT ITERATION LOOP NUMBER    1
          -----------------------------------------------

 ------------------------------------------------------------------------------------------------------------------------
     1 CALLS TO SPARSE MATRIX SOLVER PACKAGE IN TRANSPORT TIME STEP     126 STRESS PERIOD       2 SPECIES  1

 TOTAL OF       1OUTER ITERATIONS
  MAXIMUM CHANGE FOR EACH ITERATION:
   MAX. CHANGE        NODE  MAX. CHANGE        NODE  MAX. CHANGE        NODE  MAX. CHANGE        NODE  MAX. CHANGE        NODE
 ------------------------------------------------------------------------------------------------------------------------------------
  -0.29007    ,       3146
     TRANSPORT SOLUTION COMPLETE FOR COMPONENT SPECIES NUMBER    1
     ------------------------------------------------------------

 TRANSPORT SOLUTION COMPLETE FOR ALL SPECIES, SORTING OUTPUT FOR CONCENTRATIONS AND MASS BALANCE
 ----------------------------------------------------------------------------------------------------
     TRANSPORT OUTPUT FOR COMPONENT SPECIES NUMBER    1
     ------------------------------------------------------------
 -------------------------------------------------------------------------------------
 
 SOLVING FOR HEAD 

 Outer-Iteration  Inner-Iteration  Backtracking  Number of        Incoming       Outgoing      Cutoff     Maximum Head Change      Maximum Head Change
     Number           Count           Flag       Backtracks       Residual       Residual      Residual            Value               Location
        1                             0             0          0.652643E-02     0.652643E-02   -1.00000    
        1               13                                                                                       0.163275E-03               3145           GWF-node number
        2                             0             0          0.149797E-06     0.149797E-06   -1.00000    
        2                4                                                                                       0.572998E-06               2881           GWF-node number
     2 CALLS TO SPARSE MATRIX SOLVER PACKAGE  IN FLOW TIME STEP     127 STRESS PERIOD       2

 TOTAL OF       2OUTER ITERATIONS
  MAXIMUM CHANGE FOR EACH ITERATION:
   MAX. CHANGE        NODE  MAX. CHANGE        NODE  MAX. CHANGE        NODE  MAX. CHANGE        NODE  MAX. CHANGE        NODE
 ------------------------------------------------------------------------------------------------------------------------------------
   0.16327E-03,       3145  0.57300E-06,       2881

 NO OUTPUT CONTROL FOR STRESS PERIOD        2   TIME STEP      127



          TIME SUMMARY AT END OF TIME STEP       127 IN STRESS PERIOD         2
                    SECONDS     MINUTES      HOURS       DAYS        YEARS
                    -----------------------------------------------------------
   TIME STEP LENGTH  86.400      1.4400     2.40000E-02 1.00000E-03 2.73785E-06
 STRESS PERIOD TIME  10973.      182.88      3.0480     0.12700     3.47707E-04
         TOTAL TIME  97373.      1622.9      27.048      1.1270     3.08556E-03
1
 ------------------------------------------------------------------------------------------------------------
 
 SOLVING FOR TRANSPORT 

          SEQUENTIAL TRANSPORT ITERATION LOOP NUMBER    1
          -----------------------------------------------

 ------------------------------------------------------------------------------------------------------------------------
     1 CALLS TO SPARSE MATRIX SOLVER PACKAGE IN TRANSPORT TIME STEP     127 STRESS PERIOD       2 SPECIES  1

 TOTAL OF       1OUTER ITERATIONS
  MAXIMUM CHANGE FOR EACH ITERATION:
   MAX. CHANGE        NODE  MAX. CHANGE        NODE  MAX. CHANGE        NODE  MAX. CHANGE        NODE  MAX. CHANGE        NODE
 ------------------------------------------------------------------------------------------------------------------------------------
  -0.28733    ,       3146
     TRANSPORT SOLUTION COMPLETE FOR COMPONENT SPECIES NUMBER    1
     ------------------------------------------------------------

 TRANSPORT SOLUTION COMPLETE FOR ALL SPECIES, SORTING OUTPUT FOR CONCENTRATIONS AND MASS BALANCE
 ----------------------------------------------------------------------------------------------------
     TRANSPORT OUTPUT FOR COMPONENT SPECIES NUMBER    1
     ------------------------------------------------------------
 -------------------------------------------------------------------------------------
 
 SOLVING FOR HEAD 

 Outer-Iteration  Inner-Iteration  Backtracking  Number of        Incoming       Outgoing      Cutoff     Maximum Head Change      Maximum Head Change
     Number           Count           Flag       Backtracks       Residual       Residual      Residual            Value               Location
        1                             0             0          0.113804E-01     0.113804E-01   -1.00000    
        1               12                                                                                       0.162466E-03               3145           GWF-node number
        2                             0             0          0.720160E-06     0.720160E-06   -1.00000    
        2                3                                                                                       0.784526E-06               3056           GWF-node number
     2 CALLS TO SPARSE MATRIX SOLVER PACKAGE  IN FLOW TIME STEP     128 STRESS PERIOD       2

 TOTAL OF       2OUTER ITERATIONS
  MAXIMUM CHANGE FOR EACH ITERATION:
   MAX. CHANGE        NODE  MAX. CHANGE        NODE  MAX. CHANGE        NODE  MAX. CHANGE        NODE  MAX. CHANGE        NODE
 ------------------------------------------------------------------------------------------------------------------------------------
   0.16247E-03,       3145  0.78453E-06,       3056

 NO OUTPUT CONTROL FOR STRESS PERIOD        2   TIME STEP      128



          TIME SUMMARY AT END OF TIME STEP       128 IN STRESS PERIOD         2
                    SECONDS     MINUTES      HOURS       DAYS        YEARS
                    -----------------------------------------------------------
   TIME STEP LENGTH  86.400      1.4400     2.40000E-02 1.00000E-03 2.73785E-06
 STRESS PERIOD TIME  11059.      184.32      3.0720     0.12800     3.50445E-04
         TOTAL TIME  97459.      1624.3      27.072      1.1280     3.08830E-03
1
 ------------------------------------------------------------------------------------------------------------
 
 SOLVING FOR TRANSPORT 

          SEQUENTIAL TRANSPORT ITERATION LOOP NUMBER    1
          -----------------------------------------------

 ------------------------------------------------------------------------------------------------------------------------
     1 CALLS TO SPARSE MATRIX SOLVER PACKAGE IN TRANSPORT TIME STEP     128 STRESS PERIOD       2 SPECIES  1

 TOTAL OF       1OUTER ITERATIONS
  MAXIMUM CHANGE FOR EACH ITERATION:
   MAX. CHANGE        NODE  MAX. CHANGE        NODE  MAX. CHANGE        NODE  MAX. CHANGE        NODE  MAX. CHANGE        NODE
 ------------------------------------------------------------------------------------------------------------------------------------
  -0.28472    ,       3146
     TRANSPORT SOLUTION COMPLETE FOR COMPONENT SPECIES NUMBER    1
     ------------------------------------------------------------

 TRANSPORT SOLUTION COMPLETE FOR ALL SPECIES, SORTING OUTPUT FOR CONCENTRATIONS AND MASS BALANCE
 ----------------------------------------------------------------------------------------------------
     TRANSPORT OUTPUT FOR COMPONENT SPECIES NUMBER    1
     ------------------------------------------------------------
 -------------------------------------------------------------------------------------
 
 SOLVING FOR HEAD 

 Outer-Iteration  Inner-Iteration  Backtracking  Number of        Incoming       Outgoing      Cutoff     Maximum Head Change      Maximum Head Change
     Number           Count           Flag       Backtracks       Residual       Residual      Residual            Value               Location
        1                             0             0          0.165817E-01     0.165817E-01   -1.00000    
        1               12                                                                                       0.161525E-03               3145           GWF-node number
        2                             0             0          0.267529E-05     0.267529E-05   -1.00000    
        2                3                                                                                      -0.189098E-05                961           GWF-node number
     2 CALLS TO SPARSE MATRIX SOLVER PACKAGE  IN FLOW TIME STEP     129 STRESS PERIOD       2

 TOTAL OF       2OUTER ITERATIONS
  MAXIMUM CHANGE FOR EACH ITERATION:
   MAX. CHANGE        NODE  MAX. CHANGE        NODE  MAX. CHANGE        NODE  MAX. CHANGE        NODE  MAX. CHANGE        NODE
 ------------------------------------------------------------------------------------------------------------------------------------
   0.16152E-03,       3145 -0.18910E-05,        961

 NO OUTPUT CONTROL FOR STRESS PERIOD        2   TIME STEP      129



          TIME SUMMARY AT END OF TIME STEP       129 IN STRESS PERIOD         2
                    SECONDS     MINUTES      HOURS       DAYS        YEARS
                    -----------------------------------------------------------
   TIME STEP LENGTH  86.400      1.4400     2.40000E-02 1.00000E-03 2.73785E-06
 STRESS PERIOD TIME  11146.      185.76      3.0960     0.12900     3.53183E-04
         TOTAL TIME  97546.      1625.8      27.096      1.1290     3.09103E-03
1
 ------------------------------------------------------------------------------------------------------------
 
 SOLVING FOR TRANSPORT 

          SEQUENTIAL TRANSPORT ITERATION LOOP NUMBER    1
          -----------------------------------------------

 ------------------------------------------------------------------------------------------------------------------------
     1 CALLS TO SPARSE MATRIX SOLVER PACKAGE IN TRANSPORT TIME STEP     129 STRESS PERIOD       2 SPECIES  1

 TOTAL OF       1OUTER ITERATIONS
  MAXIMUM CHANGE FOR EACH ITERATION:
   MAX. CHANGE        NODE  MAX. CHANGE        NODE  MAX. CHANGE        NODE  MAX. CHANGE        NODE  MAX. CHANGE        NODE
 ------------------------------------------------------------------------------------------------------------------------------------
  -0.28173    ,       3146
     TRANSPORT SOLUTION COMPLETE FOR COMPONENT SPECIES NUMBER    1
     ------------------------------------------------------------

 TRANSPORT SOLUTION COMPLETE FOR ALL SPECIES, SORTING OUTPUT FOR CONCENTRATIONS AND MASS BALANCE
 ----------------------------------------------------------------------------------------------------
     TRANSPORT OUTPUT FOR COMPONENT SPECIES NUMBER    1
     ------------------------------------------------------------
 -------------------------------------------------------------------------------------
 
 SOLVING FOR HEAD 

 Outer-Iteration  Inner-Iteration  Backtracking  Number of        Incoming       Outgoing      Cutoff     Maximum Head Change      Maximum Head Change
     Number           Count           Flag       Backtracks       Residual       Residual      Residual            Value               Location
        1                             0             0          0.699109E-02     0.699109E-02   -1.00000    
        1               13                                                                                       0.160711E-03               3146           GWF-node number
        2                             0             0          0.334929E-06     0.334929E-06   -1.00000    
        2                1                                                                                      -0.570210E-06               3086           GWF-node number
     2 CALLS TO SPARSE MATRIX SOLVER PACKAGE  IN FLOW TIME STEP     130 STRESS PERIOD       2

 TOTAL OF       2OUTER ITERATIONS
  MAXIMUM CHANGE FOR EACH ITERATION:
   MAX. CHANGE        NODE  MAX. CHANGE        NODE  MAX. CHANGE        NODE  MAX. CHANGE        NODE  MAX. CHANGE        NODE
 ------------------------------------------------------------------------------------------------------------------------------------
   0.16071E-03,       3146 -0.57021E-06,       3086

 NO OUTPUT CONTROL FOR STRESS PERIOD        2   TIME STEP      130



          TIME SUMMARY AT END OF TIME STEP       130 IN STRESS PERIOD         2
                    SECONDS     MINUTES      HOURS       DAYS        YEARS
                    -----------------------------------------------------------
   TIME STEP LENGTH  86.400      1.4400     2.40000E-02 1.00000E-03 2.73785E-06
 STRESS PERIOD TIME  11232.      187.20      3.1200     0.13000     3.55921E-04
         TOTAL TIME  97632.      1627.2      27.120      1.1300     3.09377E-03
1
 ------------------------------------------------------------------------------------------------------------
 
 SOLVING FOR TRANSPORT 

          SEQUENTIAL TRANSPORT ITERATION LOOP NUMBER    1
          -----------------------------------------------

 ------------------------------------------------------------------------------------------------------------------------
     1 CALLS TO SPARSE MATRIX SOLVER PACKAGE IN TRANSPORT TIME STEP     130 STRESS PERIOD       2 SPECIES  1

 TOTAL OF       1OUTER ITERATIONS
  MAXIMUM CHANGE FOR EACH ITERATION:
   MAX. CHANGE        NODE  MAX. CHANGE        NODE  MAX. CHANGE        NODE  MAX. CHANGE        NODE  MAX. CHANGE        NODE
 ------------------------------------------------------------------------------------------------------------------------------------
  -0.27967    ,       3147
     TRANSPORT SOLUTION COMPLETE FOR COMPONENT SPECIES NUMBER    1
     ------------------------------------------------------------

 TRANSPORT SOLUTION COMPLETE FOR ALL SPECIES, SORTING OUTPUT FOR CONCENTRATIONS AND MASS BALANCE
 ----------------------------------------------------------------------------------------------------
     TRANSPORT OUTPUT FOR COMPONENT SPECIES NUMBER    1
     ------------------------------------------------------------
 -------------------------------------------------------------------------------------
 
 SOLVING FOR HEAD 

 Outer-Iteration  Inner-Iteration  Backtracking  Number of        Incoming       Outgoing      Cutoff     Maximum Head Change      Maximum Head Change
     Number           Count           Flag       Backtracks       Residual       Residual      Residual            Value               Location
        1                             0             0          0.654316E-02     0.654316E-02   -1.00000    
        1               15                                                                                       0.160479E-03               3146           GWF-node number
        2                             0             0          0.655924E-07     0.655924E-07   -1.00000    
        2                2                                                                                      -0.749493E-06               3162           GWF-node number
     2 CALLS TO SPARSE MATRIX SOLVER PACKAGE  IN FLOW TIME STEP     131 STRESS PERIOD       2

 TOTAL OF       2OUTER ITERATIONS
  MAXIMUM CHANGE FOR EACH ITERATION:
   MAX. CHANGE        NODE  MAX. CHANGE        NODE  MAX. CHANGE        NODE  MAX. CHANGE        NODE  MAX. CHANGE        NODE
 ------------------------------------------------------------------------------------------------------------------------------------
   0.16048E-03,       3146 -0.74949E-06,       3162

 NO OUTPUT CONTROL FOR STRESS PERIOD        2   TIME STEP      131



          TIME SUMMARY AT END OF TIME STEP       131 IN STRESS PERIOD         2
                    SECONDS     MINUTES      HOURS       DAYS        YEARS
                    -----------------------------------------------------------
   TIME STEP LENGTH  86.400      1.4400     2.40000E-02 1.00000E-03 2.73785E-06
 STRESS PERIOD TIME  11318.      188.64      3.1440     0.13100     3.58658E-04
         TOTAL TIME  97718.      1628.6      27.144      1.1310     3.09651E-03
1
 ------------------------------------------------------------------------------------------------------------
 
 SOLVING FOR TRANSPORT 

          SEQUENTIAL TRANSPORT ITERATION LOOP NUMBER    1
          -----------------------------------------------

 ------------------------------------------------------------------------------------------------------------------------
     1 CALLS TO SPARSE MATRIX SOLVER PACKAGE IN TRANSPORT TIME STEP     131 STRESS PERIOD       2 SPECIES  1

 TOTAL OF       1OUTER ITERATIONS
  MAXIMUM CHANGE FOR EACH ITERATION:
   MAX. CHANGE        NODE  MAX. CHANGE        NODE  MAX. CHANGE        NODE  MAX. CHANGE        NODE  MAX. CHANGE        NODE
 ------------------------------------------------------------------------------------------------------------------------------------
  -0.27677    ,       3147
     TRANSPORT SOLUTION COMPLETE FOR COMPONENT SPECIES NUMBER    1
     ------------------------------------------------------------

 TRANSPORT SOLUTION COMPLETE FOR ALL SPECIES, SORTING OUTPUT FOR CONCENTRATIONS AND MASS BALANCE
 ----------------------------------------------------------------------------------------------------
     TRANSPORT OUTPUT FOR COMPONENT SPECIES NUMBER    1
     ------------------------------------------------------------
 -------------------------------------------------------------------------------------
 
 SOLVING FOR HEAD 

 Outer-Iteration  Inner-Iteration  Backtracking  Number of        Incoming       Outgoing      Cutoff     Maximum Head Change      Maximum Head Change
     Number           Count           Flag       Backtracks       Residual       Residual      Residual            Value               Location
        1                             0             0          0.799706E-02     0.799706E-02   -1.00000    
        1               12                                                                                       0.160141E-03               3146           GWF-node number
        2                             0             0          0.286311E-06     0.286311E-06   -1.00000    
        2                2                                                                                       0.431332E-06               1047           GWF-node number
     2 CALLS TO SPARSE MATRIX SOLVER PACKAGE  IN FLOW TIME STEP     132 STRESS PERIOD       2

 TOTAL OF       2OUTER ITERATIONS
  MAXIMUM CHANGE FOR EACH ITERATION:
   MAX. CHANGE        NODE  MAX. CHANGE        NODE  MAX. CHANGE        NODE  MAX. CHANGE        NODE  MAX. CHANGE        NODE
 ------------------------------------------------------------------------------------------------------------------------------------
   0.16014E-03,       3146  0.43133E-06,       1047

 NO OUTPUT CONTROL FOR STRESS PERIOD        2   TIME STEP      132



          TIME SUMMARY AT END OF TIME STEP       132 IN STRESS PERIOD         2
                    SECONDS     MINUTES      HOURS       DAYS        YEARS
                    -----------------------------------------------------------
   TIME STEP LENGTH  86.400      1.4400     2.40000E-02 1.00000E-03 2.73785E-06
 STRESS PERIOD TIME  11405.      190.08      3.1680     0.13200     3.61396E-04
         TOTAL TIME  97805.      1630.1      27.168      1.1320     3.09925E-03
1
 ------------------------------------------------------------------------------------------------------------
 
 SOLVING FOR TRANSPORT 

          SEQUENTIAL TRANSPORT ITERATION LOOP NUMBER    1
          -----------------------------------------------

 ------------------------------------------------------------------------------------------------------------------------
     1 CALLS TO SPARSE MATRIX SOLVER PACKAGE IN TRANSPORT TIME STEP     132 STRESS PERIOD       2 SPECIES  1

 TOTAL OF       1OUTER ITERATIONS
  MAXIMUM CHANGE FOR EACH ITERATION:
   MAX. CHANGE        NODE  MAX. CHANGE        NODE  MAX. CHANGE        NODE  MAX. CHANGE        NODE  MAX. CHANGE        NODE
 ------------------------------------------------------------------------------------------------------------------------------------
  -0.27383    ,       3147
     TRANSPORT SOLUTION COMPLETE FOR COMPONENT SPECIES NUMBER    1
     ------------------------------------------------------------

 TRANSPORT SOLUTION COMPLETE FOR ALL SPECIES, SORTING OUTPUT FOR CONCENTRATIONS AND MASS BALANCE
 ----------------------------------------------------------------------------------------------------
     TRANSPORT OUTPUT FOR COMPONENT SPECIES NUMBER    1
     ------------------------------------------------------------
 -------------------------------------------------------------------------------------
 
 SOLVING FOR HEAD 

 Outer-Iteration  Inner-Iteration  Backtracking  Number of        Incoming       Outgoing      Cutoff     Maximum Head Change      Maximum Head Change
     Number           Count           Flag       Backtracks       Residual       Residual      Residual            Value               Location
        1                             0             0          0.116360E-01     0.116360E-01   -1.00000    
        1               13                                                                                       0.157754E-03               3146           GWF-node number
        2                             0             0          0.864519E-06     0.864519E-06   -1.00000    
        2                1                                                                                       0.618890E-06               2173           GWF-node number
     2 CALLS TO SPARSE MATRIX SOLVER PACKAGE  IN FLOW TIME STEP     133 STRESS PERIOD       2

 TOTAL OF       2OUTER ITERATIONS
  MAXIMUM CHANGE FOR EACH ITERATION:
   MAX. CHANGE        NODE  MAX. CHANGE        NODE  MAX. CHANGE        NODE  MAX. CHANGE        NODE  MAX. CHANGE        NODE
 ------------------------------------------------------------------------------------------------------------------------------------
   0.15775E-03,       3146  0.61889E-06,       2173

 NO OUTPUT CONTROL FOR STRESS PERIOD        2   TIME STEP      133



          TIME SUMMARY AT END OF TIME STEP       133 IN STRESS PERIOD         2
                    SECONDS     MINUTES      HOURS       DAYS        YEARS
                    -----------------------------------------------------------
   TIME STEP LENGTH  86.400      1.4400     2.40000E-02 1.00000E-03 2.73785E-06
 STRESS PERIOD TIME  11491.      191.52      3.1920     0.13300     3.64134E-04
         TOTAL TIME  97891.      1631.5      27.192      1.1330     3.10198E-03
1
 ------------------------------------------------------------------------------------------------------------
 
 SOLVING FOR TRANSPORT 

          SEQUENTIAL TRANSPORT ITERATION LOOP NUMBER    1
          -----------------------------------------------

 ------------------------------------------------------------------------------------------------------------------------
     1 CALLS TO SPARSE MATRIX SOLVER PACKAGE IN TRANSPORT TIME STEP     133 STRESS PERIOD       2 SPECIES  1

 TOTAL OF       1OUTER ITERATIONS
  MAXIMUM CHANGE FOR EACH ITERATION:
   MAX. CHANGE        NODE  MAX. CHANGE        NODE  MAX. CHANGE        NODE  MAX. CHANGE        NODE  MAX. CHANGE        NODE
 ------------------------------------------------------------------------------------------------------------------------------------
  -0.27171    ,       3147
     TRANSPORT SOLUTION COMPLETE FOR COMPONENT SPECIES NUMBER    1
     ------------------------------------------------------------

 TRANSPORT SOLUTION COMPLETE FOR ALL SPECIES, SORTING OUTPUT FOR CONCENTRATIONS AND MASS BALANCE
 ----------------------------------------------------------------------------------------------------
     TRANSPORT OUTPUT FOR COMPONENT SPECIES NUMBER    1
     ------------------------------------------------------------
 -------------------------------------------------------------------------------------
 
 SOLVING FOR HEAD 

 Outer-Iteration  Inner-Iteration  Backtracking  Number of        Incoming       Outgoing      Cutoff     Maximum Head Change      Maximum Head Change
     Number           Count           Flag       Backtracks       Residual       Residual      Residual            Value               Location
        1                             0             0          0.226909E-01     0.226909E-01   -1.00000    
        1               11                                                                                       0.153918E-03               3147           GWF-node number
        2                             0             0          0.139392E-05     0.139392E-05   -1.00000    
        2                1                                                                                      -0.763209E-06               2932           GWF-node number
     2 CALLS TO SPARSE MATRIX SOLVER PACKAGE  IN FLOW TIME STEP     134 STRESS PERIOD       2

 TOTAL OF       2OUTER ITERATIONS
  MAXIMUM CHANGE FOR EACH ITERATION:
   MAX. CHANGE        NODE  MAX. CHANGE        NODE  MAX. CHANGE        NODE  MAX. CHANGE        NODE  MAX. CHANGE        NODE
 ------------------------------------------------------------------------------------------------------------------------------------
   0.15392E-03,       3147 -0.76321E-06,       2932

 NO OUTPUT CONTROL FOR STRESS PERIOD        2   TIME STEP      134



          TIME SUMMARY AT END OF TIME STEP       134 IN STRESS PERIOD         2
                    SECONDS     MINUTES      HOURS       DAYS        YEARS
                    -----------------------------------------------------------
   TIME STEP LENGTH  86.400      1.4400     2.40000E-02 1.00000E-03 2.73785E-06
 STRESS PERIOD TIME  11578.      192.96      3.2160     0.13400     3.66872E-04
         TOTAL TIME  97978.      1633.0      27.216      1.1340     3.10472E-03
1
 ------------------------------------------------------------------------------------------------------------
 
 SOLVING FOR TRANSPORT 

          SEQUENTIAL TRANSPORT ITERATION LOOP NUMBER    1
          -----------------------------------------------

 ------------------------------------------------------------------------------------------------------------------------
     1 CALLS TO SPARSE MATRIX SOLVER PACKAGE IN TRANSPORT TIME STEP     134 STRESS PERIOD       2 SPECIES  1

 TOTAL OF       1OUTER ITERATIONS
  MAXIMUM CHANGE FOR EACH ITERATION:
   MAX. CHANGE        NODE  MAX. CHANGE        NODE  MAX. CHANGE        NODE  MAX. CHANGE        NODE  MAX. CHANGE        NODE
 ------------------------------------------------------------------------------------------------------------------------------------
  -0.32190    ,       1440
     TRANSPORT SOLUTION COMPLETE FOR COMPONENT SPECIES NUMBER    1
     ------------------------------------------------------------

 TRANSPORT SOLUTION COMPLETE FOR ALL SPECIES, SORTING OUTPUT FOR CONCENTRATIONS AND MASS BALANCE
 ----------------------------------------------------------------------------------------------------
     TRANSPORT OUTPUT FOR COMPONENT SPECIES NUMBER    1
     ------------------------------------------------------------
 -------------------------------------------------------------------------------------
 
 SOLVING FOR HEAD 

 Outer-Iteration  Inner-Iteration  Backtracking  Number of        Incoming       Outgoing      Cutoff     Maximum Head Change      Maximum Head Change
     Number           Count           Flag       Backtracks       Residual       Residual      Residual            Value               Location
        1                             0             0          0.335583E-01     0.335583E-01   -1.00000    
        1               14                                                                                       0.151960E-03               3147           GWF-node number
        2                             0             0          0.903047E-07     0.903047E-07   -1.00000    
        2                3                                                                                       0.650014E-06               2339           GWF-node number
     2 CALLS TO SPARSE MATRIX SOLVER PACKAGE  IN FLOW TIME STEP     135 STRESS PERIOD       2

 TOTAL OF       2OUTER ITERATIONS
  MAXIMUM CHANGE FOR EACH ITERATION:
   MAX. CHANGE        NODE  MAX. CHANGE        NODE  MAX. CHANGE        NODE  MAX. CHANGE        NODE  MAX. CHANGE        NODE
 ------------------------------------------------------------------------------------------------------------------------------------
   0.15196E-03,       3147  0.65001E-06,       2339

 NO OUTPUT CONTROL FOR STRESS PERIOD        2   TIME STEP      135



          TIME SUMMARY AT END OF TIME STEP       135 IN STRESS PERIOD         2
                    SECONDS     MINUTES      HOURS       DAYS        YEARS
                    -----------------------------------------------------------
   TIME STEP LENGTH  86.400      1.4400     2.40000E-02 1.00000E-03 2.73785E-06
 STRESS PERIOD TIME  11664.      194.40      3.2400     0.13500     3.69610E-04
         TOTAL TIME  98064.      1634.4      27.240      1.1350     3.10746E-03
1
 ------------------------------------------------------------------------------------------------------------
 
 SOLVING FOR TRANSPORT 

          SEQUENTIAL TRANSPORT ITERATION LOOP NUMBER    1
          -----------------------------------------------

 ------------------------------------------------------------------------------------------------------------------------
     1 CALLS TO SPARSE MATRIX SOLVER PACKAGE IN TRANSPORT TIME STEP     135 STRESS PERIOD       2 SPECIES  1

 TOTAL OF       1OUTER ITERATIONS
  MAXIMUM CHANGE FOR EACH ITERATION:
   MAX. CHANGE        NODE  MAX. CHANGE        NODE  MAX. CHANGE        NODE  MAX. CHANGE        NODE  MAX. CHANGE        NODE
 ------------------------------------------------------------------------------------------------------------------------------------
  -0.26536    ,       3148
     TRANSPORT SOLUTION COMPLETE FOR COMPONENT SPECIES NUMBER    1
     ------------------------------------------------------------

 TRANSPORT SOLUTION COMPLETE FOR ALL SPECIES, SORTING OUTPUT FOR CONCENTRATIONS AND MASS BALANCE
 ----------------------------------------------------------------------------------------------------
     TRANSPORT OUTPUT FOR COMPONENT SPECIES NUMBER    1
     ------------------------------------------------------------
 -------------------------------------------------------------------------------------
 
 SOLVING FOR HEAD 

 Outer-Iteration  Inner-Iteration  Backtracking  Number of        Incoming       Outgoing      Cutoff     Maximum Head Change      Maximum Head Change
     Number           Count           Flag       Backtracks       Residual       Residual      Residual            Value               Location
        1                             0             0          0.100549E-01     0.100549E-01   -1.00000    
        1               10                                                                                       0.153138E-03               3147           GWF-node number
        2                             0             0          0.230060E-05     0.230060E-05   -1.00000    
        2                3                                                                                      -0.959649E-06               2998           GWF-node number
     2 CALLS TO SPARSE MATRIX SOLVER PACKAGE  IN FLOW TIME STEP     136 STRESS PERIOD       2

 TOTAL OF       2OUTER ITERATIONS
  MAXIMUM CHANGE FOR EACH ITERATION:
   MAX. CHANGE        NODE  MAX. CHANGE        NODE  MAX. CHANGE        NODE  MAX. CHANGE        NODE  MAX. CHANGE        NODE
 ------------------------------------------------------------------------------------------------------------------------------------
   0.15314E-03,       3147 -0.95965E-06,       2998

 NO OUTPUT CONTROL FOR STRESS PERIOD        2   TIME STEP      136



          TIME SUMMARY AT END OF TIME STEP       136 IN STRESS PERIOD         2
                    SECONDS     MINUTES      HOURS       DAYS        YEARS
                    -----------------------------------------------------------
   TIME STEP LENGTH  86.400      1.4400     2.40000E-02 1.00000E-03 2.73785E-06
 STRESS PERIOD TIME  11750.      195.84      3.2640     0.13600     3.72348E-04
         TOTAL TIME  98150.      1635.8      27.264      1.1360     3.11020E-03
1
 ------------------------------------------------------------------------------------------------------------
 
 SOLVING FOR TRANSPORT 

          SEQUENTIAL TRANSPORT ITERATION LOOP NUMBER    1
          -----------------------------------------------

 ------------------------------------------------------------------------------------------------------------------------
     1 CALLS TO SPARSE MATRIX SOLVER PACKAGE IN TRANSPORT TIME STEP     136 STRESS PERIOD       2 SPECIES  1

 TOTAL OF       1OUTER ITERATIONS
  MAXIMUM CHANGE FOR EACH ITERATION:
   MAX. CHANGE        NODE  MAX. CHANGE        NODE  MAX. CHANGE        NODE  MAX. CHANGE        NODE  MAX. CHANGE        NODE
 ------------------------------------------------------------------------------------------------------------------------------------
  -0.26306    ,       3148
     TRANSPORT SOLUTION COMPLETE FOR COMPONENT SPECIES NUMBER    1
     ------------------------------------------------------------

 TRANSPORT SOLUTION COMPLETE FOR ALL SPECIES, SORTING OUTPUT FOR CONCENTRATIONS AND MASS BALANCE
 ----------------------------------------------------------------------------------------------------
     TRANSPORT OUTPUT FOR COMPONENT SPECIES NUMBER    1
     ------------------------------------------------------------
 -------------------------------------------------------------------------------------
 
 SOLVING FOR HEAD 

 Outer-Iteration  Inner-Iteration  Backtracking  Number of        Incoming       Outgoing      Cutoff     Maximum Head Change      Maximum Head Change
     Number           Count           Flag       Backtracks       Residual       Residual      Residual            Value               Location
        1                             0             0          0.584234E-02     0.584234E-02   -1.00000    
        1               15                                                                                       0.152501E-03               3147           GWF-node number
        2                             0             0          0.492476E-07     0.492476E-07   -1.00000    
        2                3                                                                                       0.704302E-06               3136           GWF-node number
     2 CALLS TO SPARSE MATRIX SOLVER PACKAGE  IN FLOW TIME STEP     137 STRESS PERIOD       2

 TOTAL OF       2OUTER ITERATIONS
  MAXIMUM CHANGE FOR EACH ITERATION:
   MAX. CHANGE        NODE  MAX. CHANGE        NODE  MAX. CHANGE        NODE  MAX. CHANGE        NODE  MAX. CHANGE        NODE
 ------------------------------------------------------------------------------------------------------------------------------------
   0.15250E-03,       3147  0.70430E-06,       3136

 NO OUTPUT CONTROL FOR STRESS PERIOD        2   TIME STEP      137



          TIME SUMMARY AT END OF TIME STEP       137 IN STRESS PERIOD         2
                    SECONDS     MINUTES      HOURS       DAYS        YEARS
                    -----------------------------------------------------------
   TIME STEP LENGTH  86.400      1.4400     2.40000E-02 1.00000E-03 2.73785E-06
 STRESS PERIOD TIME  11837.      197.28      3.2880     0.13700     3.75086E-04
         TOTAL TIME  98237.      1637.3      27.288      1.1370     3.11294E-03
1
 ------------------------------------------------------------------------------------------------------------
 
 SOLVING FOR TRANSPORT 

          SEQUENTIAL TRANSPORT ITERATION LOOP NUMBER    1
          -----------------------------------------------

 ------------------------------------------------------------------------------------------------------------------------
     1 CALLS TO SPARSE MATRIX SOLVER PACKAGE IN TRANSPORT TIME STEP     137 STRESS PERIOD       2 SPECIES  1

 TOTAL OF       1OUTER ITERATIONS
  MAXIMUM CHANGE FOR EACH ITERATION:
   MAX. CHANGE        NODE  MAX. CHANGE        NODE  MAX. CHANGE        NODE  MAX. CHANGE        NODE  MAX. CHANGE        NODE
 ------------------------------------------------------------------------------------------------------------------------------------
  -0.26051    ,       3148
     TRANSPORT SOLUTION COMPLETE FOR COMPONENT SPECIES NUMBER    1
     ------------------------------------------------------------

 TRANSPORT SOLUTION COMPLETE FOR ALL SPECIES, SORTING OUTPUT FOR CONCENTRATIONS AND MASS BALANCE
 ----------------------------------------------------------------------------------------------------
     TRANSPORT OUTPUT FOR COMPONENT SPECIES NUMBER    1
     ------------------------------------------------------------
 -------------------------------------------------------------------------------------
 
 SOLVING FOR HEAD 

 Outer-Iteration  Inner-Iteration  Backtracking  Number of        Incoming       Outgoing      Cutoff     Maximum Head Change      Maximum Head Change
     Number           Count           Flag       Backtracks       Residual       Residual      Residual            Value               Location
        1                             0             0          0.603259E-02     0.603259E-02   -1.00000    
        1               11                                                                                       0.154492E-03               3148           GWF-node number
        2                             0             0          0.368610E-05     0.368610E-05   -1.00000    
        2                3                                                                                      -0.368929E-05                721           GWF-node number
     2 CALLS TO SPARSE MATRIX SOLVER PACKAGE  IN FLOW TIME STEP     138 STRESS PERIOD       2

 TOTAL OF       2OUTER ITERATIONS
  MAXIMUM CHANGE FOR EACH ITERATION:
   MAX. CHANGE        NODE  MAX. CHANGE        NODE  MAX. CHANGE        NODE  MAX. CHANGE        NODE  MAX. CHANGE        NODE
 ------------------------------------------------------------------------------------------------------------------------------------
   0.15449E-03,       3148 -0.36893E-05,        721

 NO OUTPUT CONTROL FOR STRESS PERIOD        2   TIME STEP      138



          TIME SUMMARY AT END OF TIME STEP       138 IN STRESS PERIOD         2
                    SECONDS     MINUTES      HOURS       DAYS        YEARS
                    -----------------------------------------------------------
   TIME STEP LENGTH  86.400      1.4400     2.40000E-02 1.00000E-03 2.73785E-06
 STRESS PERIOD TIME  11923.      198.72      3.3120     0.13800     3.77823E-04
         TOTAL TIME  98323.      1638.7      27.312      1.1380     3.11567E-03
1
 ------------------------------------------------------------------------------------------------------------
 
 SOLVING FOR TRANSPORT 

          SEQUENTIAL TRANSPORT ITERATION LOOP NUMBER    1
          -----------------------------------------------

 ------------------------------------------------------------------------------------------------------------------------
     1 CALLS TO SPARSE MATRIX SOLVER PACKAGE IN TRANSPORT TIME STEP     138 STRESS PERIOD       2 SPECIES  1

 TOTAL OF       1OUTER ITERATIONS
  MAXIMUM CHANGE FOR EACH ITERATION:
   MAX. CHANGE        NODE  MAX. CHANGE        NODE  MAX. CHANGE        NODE  MAX. CHANGE        NODE  MAX. CHANGE        NODE
 ------------------------------------------------------------------------------------------------------------------------------------
  -0.25765    ,       3148
     TRANSPORT SOLUTION COMPLETE FOR COMPONENT SPECIES NUMBER    1
     ------------------------------------------------------------

 TRANSPORT SOLUTION COMPLETE FOR ALL SPECIES, SORTING OUTPUT FOR CONCENTRATIONS AND MASS BALANCE
 ----------------------------------------------------------------------------------------------------
     TRANSPORT OUTPUT FOR COMPONENT SPECIES NUMBER    1
     ------------------------------------------------------------
 -------------------------------------------------------------------------------------
 
 SOLVING FOR HEAD 

 Outer-Iteration  Inner-Iteration  Backtracking  Number of        Incoming       Outgoing      Cutoff     Maximum Head Change      Maximum Head Change
     Number           Count           Flag       Backtracks       Residual       Residual      Residual            Value               Location
        1                             0             0          0.772561E-02     0.772561E-02   -1.00000    
        1               11                                                                                       0.148338E-03               3148           GWF-node number
        2                             0             0          0.616075E-06     0.616075E-06   -1.00000    
        2                1                                                                                       0.891347E-06               3047           GWF-node number
     2 CALLS TO SPARSE MATRIX SOLVER PACKAGE  IN FLOW TIME STEP     139 STRESS PERIOD       2

 TOTAL OF       2OUTER ITERATIONS
  MAXIMUM CHANGE FOR EACH ITERATION:
   MAX. CHANGE        NODE  MAX. CHANGE        NODE  MAX. CHANGE        NODE  MAX. CHANGE        NODE  MAX. CHANGE        NODE
 ------------------------------------------------------------------------------------------------------------------------------------
   0.14834E-03,       3148  0.89135E-06,       3047

 NO OUTPUT CONTROL FOR STRESS PERIOD        2   TIME STEP      139



          TIME SUMMARY AT END OF TIME STEP       139 IN STRESS PERIOD         2
                    SECONDS     MINUTES      HOURS       DAYS        YEARS
                    -----------------------------------------------------------
   TIME STEP LENGTH  86.400      1.4400     2.40000E-02 1.00000E-03 2.73785E-06
 STRESS PERIOD TIME  12010.      200.16      3.3360     0.13900     3.80561E-04
         TOTAL TIME  98410.      1640.2      27.336      1.1390     3.11841E-03
1
 ------------------------------------------------------------------------------------------------------------
 
 SOLVING FOR TRANSPORT 

          SEQUENTIAL TRANSPORT ITERATION LOOP NUMBER    1
          -----------------------------------------------

 ------------------------------------------------------------------------------------------------------------------------
     1 CALLS TO SPARSE MATRIX SOLVER PACKAGE IN TRANSPORT TIME STEP     139 STRESS PERIOD       2 SPECIES  1

 TOTAL OF       1OUTER ITERATIONS
  MAXIMUM CHANGE FOR EACH ITERATION:
   MAX. CHANGE        NODE  MAX. CHANGE        NODE  MAX. CHANGE        NODE  MAX. CHANGE        NODE  MAX. CHANGE        NODE
 ------------------------------------------------------------------------------------------------------------------------------------
  -0.25509    ,       3149
     TRANSPORT SOLUTION COMPLETE FOR COMPONENT SPECIES NUMBER    1
     ------------------------------------------------------------

 TRANSPORT SOLUTION COMPLETE FOR ALL SPECIES, SORTING OUTPUT FOR CONCENTRATIONS AND MASS BALANCE
 ----------------------------------------------------------------------------------------------------
     TRANSPORT OUTPUT FOR COMPONENT SPECIES NUMBER    1
     ------------------------------------------------------------
 -------------------------------------------------------------------------------------
 
 SOLVING FOR HEAD 

 Outer-Iteration  Inner-Iteration  Backtracking  Number of        Incoming       Outgoing      Cutoff     Maximum Head Change      Maximum Head Change
     Number           Count           Flag       Backtracks       Residual       Residual      Residual            Value               Location
        1                             0             0          0.122364E-01     0.122364E-01   -1.00000    
        1               13                                                                                       0.145929E-03               3148           GWF-node number
        2                             0             0          0.219032E-06     0.219032E-06   -1.00000    
        2                1                                                                                       0.839853E-06               3060           GWF-node number
     2 CALLS TO SPARSE MATRIX SOLVER PACKAGE  IN FLOW TIME STEP     140 STRESS PERIOD       2

 TOTAL OF       2OUTER ITERATIONS
  MAXIMUM CHANGE FOR EACH ITERATION:
   MAX. CHANGE        NODE  MAX. CHANGE        NODE  MAX. CHANGE        NODE  MAX. CHANGE        NODE  MAX. CHANGE        NODE
 ------------------------------------------------------------------------------------------------------------------------------------
   0.14593E-03,       3148  0.83985E-06,       3060

 NO OUTPUT CONTROL FOR STRESS PERIOD        2   TIME STEP      140



          TIME SUMMARY AT END OF TIME STEP       140 IN STRESS PERIOD         2
                    SECONDS     MINUTES      HOURS       DAYS        YEARS
                    -----------------------------------------------------------
   TIME STEP LENGTH  86.400      1.4400     2.40000E-02 1.00000E-03 2.73785E-06
 STRESS PERIOD TIME  12096.      201.60      3.3600     0.14000     3.83299E-04
         TOTAL TIME  98496.      1641.6      27.360      1.1400     3.12115E-03
1
 ------------------------------------------------------------------------------------------------------------
 
 SOLVING FOR TRANSPORT 

          SEQUENTIAL TRANSPORT ITERATION LOOP NUMBER    1
          -----------------------------------------------

 ------------------------------------------------------------------------------------------------------------------------
     1 CALLS TO SPARSE MATRIX SOLVER PACKAGE IN TRANSPORT TIME STEP     140 STRESS PERIOD       2 SPECIES  1

 TOTAL OF       1OUTER ITERATIONS
  MAXIMUM CHANGE FOR EACH ITERATION:
   MAX. CHANGE        NODE  MAX. CHANGE        NODE  MAX. CHANGE        NODE  MAX. CHANGE        NODE  MAX. CHANGE        NODE
 ------------------------------------------------------------------------------------------------------------------------------------
  -0.28435    ,       1360
     TRANSPORT SOLUTION COMPLETE FOR COMPONENT SPECIES NUMBER    1
     ------------------------------------------------------------

 TRANSPORT SOLUTION COMPLETE FOR ALL SPECIES, SORTING OUTPUT FOR CONCENTRATIONS AND MASS BALANCE
 ----------------------------------------------------------------------------------------------------
     TRANSPORT OUTPUT FOR COMPONENT SPECIES NUMBER    1
     ------------------------------------------------------------
 -------------------------------------------------------------------------------------
 
 SOLVING FOR HEAD 

 Outer-Iteration  Inner-Iteration  Backtracking  Number of        Incoming       Outgoing      Cutoff     Maximum Head Change      Maximum Head Change
     Number           Count           Flag       Backtracks       Residual       Residual      Residual            Value               Location
        1                             0             0          0.286729E-01     0.286729E-01   -1.00000    
        1               11                                                                                       0.142732E-03               3148           GWF-node number
        2                             0             0          0.115999E-05     0.115999E-05   -1.00000    
        2                3                                                                                       0.921813E-06               3059           GWF-node number
     2 CALLS TO SPARSE MATRIX SOLVER PACKAGE  IN FLOW TIME STEP     141 STRESS PERIOD       2

 TOTAL OF       2OUTER ITERATIONS
  MAXIMUM CHANGE FOR EACH ITERATION:
   MAX. CHANGE        NODE  MAX. CHANGE        NODE  MAX. CHANGE        NODE  MAX. CHANGE        NODE  MAX. CHANGE        NODE
 ------------------------------------------------------------------------------------------------------------------------------------
   0.14273E-03,       3148  0.92181E-06,       3059

 NO OUTPUT CONTROL FOR STRESS PERIOD        2   TIME STEP      141



          TIME SUMMARY AT END OF TIME STEP       141 IN STRESS PERIOD         2
                    SECONDS     MINUTES      HOURS       DAYS        YEARS
                    -----------------------------------------------------------
   TIME STEP LENGTH  86.400      1.4400     2.40000E-02 1.00000E-03 2.73785E-06
 STRESS PERIOD TIME  12182.      203.04      3.3840     0.14100     3.86037E-04
         TOTAL TIME  98582.      1643.0      27.384      1.1410     3.12389E-03
1
 ------------------------------------------------------------------------------------------------------------
 
 SOLVING FOR TRANSPORT 

          SEQUENTIAL TRANSPORT ITERATION LOOP NUMBER    1
          -----------------------------------------------

 ------------------------------------------------------------------------------------------------------------------------
     1 CALLS TO SPARSE MATRIX SOLVER PACKAGE IN TRANSPORT TIME STEP     141 STRESS PERIOD       2 SPECIES  1

 TOTAL OF       1OUTER ITERATIONS
  MAXIMUM CHANGE FOR EACH ITERATION:
   MAX. CHANGE        NODE  MAX. CHANGE        NODE  MAX. CHANGE        NODE  MAX. CHANGE        NODE  MAX. CHANGE        NODE
 ------------------------------------------------------------------------------------------------------------------------------------
  -0.46316    ,       1360
     TRANSPORT SOLUTION COMPLETE FOR COMPONENT SPECIES NUMBER    1
     ------------------------------------------------------------

 TRANSPORT SOLUTION COMPLETE FOR ALL SPECIES, SORTING OUTPUT FOR CONCENTRATIONS AND MASS BALANCE
 ----------------------------------------------------------------------------------------------------
     TRANSPORT OUTPUT FOR COMPONENT SPECIES NUMBER    1
     ------------------------------------------------------------
 -------------------------------------------------------------------------------------
 
 SOLVING FOR HEAD 

 Outer-Iteration  Inner-Iteration  Backtracking  Number of        Incoming       Outgoing      Cutoff     Maximum Head Change      Maximum Head Change
     Number           Count           Flag       Backtracks       Residual       Residual      Residual            Value               Location
        1                             0             0          0.729858E-01     0.729858E-01   -1.00000    
        1               14                                                                                       0.137258E-03               3148           GWF-node number
        2                             0             0          0.111226E-06     0.111226E-06   -1.00000    
        2                1                                                                                       0.593877E-06               2979           GWF-node number
     2 CALLS TO SPARSE MATRIX SOLVER PACKAGE  IN FLOW TIME STEP     142 STRESS PERIOD       2

 TOTAL OF       2OUTER ITERATIONS
  MAXIMUM CHANGE FOR EACH ITERATION:
   MAX. CHANGE        NODE  MAX. CHANGE        NODE  MAX. CHANGE        NODE  MAX. CHANGE        NODE  MAX. CHANGE        NODE
 ------------------------------------------------------------------------------------------------------------------------------------
   0.13726E-03,       3148  0.59388E-06,       2979

 NO OUTPUT CONTROL FOR STRESS PERIOD        2   TIME STEP      142



          TIME SUMMARY AT END OF TIME STEP       142 IN STRESS PERIOD         2
                    SECONDS     MINUTES      HOURS       DAYS        YEARS
                    -----------------------------------------------------------
   TIME STEP LENGTH  86.400      1.4400     2.40000E-02 1.00000E-03 2.73785E-06
 STRESS PERIOD TIME  12269.      204.48      3.4080     0.14200     3.88775E-04
         TOTAL TIME  98669.      1644.5      27.408      1.1420     3.12663E-03
1
 ------------------------------------------------------------------------------------------------------------
 
 SOLVING FOR TRANSPORT 

          SEQUENTIAL TRANSPORT ITERATION LOOP NUMBER    1
          -----------------------------------------------

 ------------------------------------------------------------------------------------------------------------------------
     1 CALLS TO SPARSE MATRIX SOLVER PACKAGE IN TRANSPORT TIME STEP     142 STRESS PERIOD       2 SPECIES  1

 TOTAL OF       1OUTER ITERATIONS
  MAXIMUM CHANGE FOR EACH ITERATION:
   MAX. CHANGE        NODE  MAX. CHANGE        NODE  MAX. CHANGE        NODE  MAX. CHANGE        NODE  MAX. CHANGE        NODE
 ------------------------------------------------------------------------------------------------------------------------------------
  -0.24801    ,       3149
     TRANSPORT SOLUTION COMPLETE FOR COMPONENT SPECIES NUMBER    1
     ------------------------------------------------------------

 TRANSPORT SOLUTION COMPLETE FOR ALL SPECIES, SORTING OUTPUT FOR CONCENTRATIONS AND MASS BALANCE
 ----------------------------------------------------------------------------------------------------
     TRANSPORT OUTPUT FOR COMPONENT SPECIES NUMBER    1
     ------------------------------------------------------------
 -------------------------------------------------------------------------------------
 
 SOLVING FOR HEAD 

 Outer-Iteration  Inner-Iteration  Backtracking  Number of        Incoming       Outgoing      Cutoff     Maximum Head Change      Maximum Head Change
     Number           Count           Flag       Backtracks       Residual       Residual      Residual            Value               Location
        1                             0             0          0.117755E-01     0.117755E-01   -1.00000    
        1               13                                                                                       0.141177E-03               3149           GWF-node number
        2                             0             0          0.271447E-06     0.271447E-06   -1.00000    
        2                1                                                                                      -0.399046E-06               2775           GWF-node number
     2 CALLS TO SPARSE MATRIX SOLVER PACKAGE  IN FLOW TIME STEP     143 STRESS PERIOD       2

 TOTAL OF       2OUTER ITERATIONS
  MAXIMUM CHANGE FOR EACH ITERATION:
   MAX. CHANGE        NODE  MAX. CHANGE        NODE  MAX. CHANGE        NODE  MAX. CHANGE        NODE  MAX. CHANGE        NODE
 ------------------------------------------------------------------------------------------------------------------------------------
   0.14118E-03,       3149 -0.39905E-06,       2775

 NO OUTPUT CONTROL FOR STRESS PERIOD        2   TIME STEP      143



          TIME SUMMARY AT END OF TIME STEP       143 IN STRESS PERIOD         2
                    SECONDS     MINUTES      HOURS       DAYS        YEARS
                    -----------------------------------------------------------
   TIME STEP LENGTH  86.400      1.4400     2.40000E-02 1.00000E-03 2.73785E-06
 STRESS PERIOD TIME  12355.      205.92      3.4320     0.14300     3.91513E-04
         TOTAL TIME  98755.      1645.9      27.432      1.1430     3.12936E-03
1
 ------------------------------------------------------------------------------------------------------------
 
 SOLVING FOR TRANSPORT 

          SEQUENTIAL TRANSPORT ITERATION LOOP NUMBER    1
          -----------------------------------------------

 ------------------------------------------------------------------------------------------------------------------------
     1 CALLS TO SPARSE MATRIX SOLVER PACKAGE IN TRANSPORT TIME STEP     143 STRESS PERIOD       2 SPECIES  1

 TOTAL OF       1OUTER ITERATIONS
  MAXIMUM CHANGE FOR EACH ITERATION:
   MAX. CHANGE        NODE  MAX. CHANGE        NODE  MAX. CHANGE        NODE  MAX. CHANGE        NODE  MAX. CHANGE        NODE
 ------------------------------------------------------------------------------------------------------------------------------------
  -0.24422    ,       3149
     TRANSPORT SOLUTION COMPLETE FOR COMPONENT SPECIES NUMBER    1
     ------------------------------------------------------------

 TRANSPORT SOLUTION COMPLETE FOR ALL SPECIES, SORTING OUTPUT FOR CONCENTRATIONS AND MASS BALANCE
 ----------------------------------------------------------------------------------------------------
     TRANSPORT OUTPUT FOR COMPONENT SPECIES NUMBER    1
     ------------------------------------------------------------
 -------------------------------------------------------------------------------------
 
 SOLVING FOR HEAD 

 Outer-Iteration  Inner-Iteration  Backtracking  Number of        Incoming       Outgoing      Cutoff     Maximum Head Change      Maximum Head Change
     Number           Count           Flag       Backtracks       Residual       Residual      Residual            Value               Location
        1                             0             0          0.444938E-02     0.444938E-02   -1.00000    
        1               13                                                                                       0.139695E-03               3149           GWF-node number
        2                             0             0          0.888414E-07     0.888414E-07   -1.00000    
        2                1                                                                                       0.370272E-06               3136           GWF-node number
     2 CALLS TO SPARSE MATRIX SOLVER PACKAGE  IN FLOW TIME STEP     144 STRESS PERIOD       2

 TOTAL OF       2OUTER ITERATIONS
  MAXIMUM CHANGE FOR EACH ITERATION:
   MAX. CHANGE        NODE  MAX. CHANGE        NODE  MAX. CHANGE        NODE  MAX. CHANGE        NODE  MAX. CHANGE        NODE
 ------------------------------------------------------------------------------------------------------------------------------------
   0.13969E-03,       3149  0.37027E-06,       3136

 NO OUTPUT CONTROL FOR STRESS PERIOD        2   TIME STEP      144



          TIME SUMMARY AT END OF TIME STEP       144 IN STRESS PERIOD         2
                    SECONDS     MINUTES      HOURS       DAYS        YEARS
                    -----------------------------------------------------------
   TIME STEP LENGTH  86.400      1.4400     2.40000E-02 1.00000E-03 2.73785E-06
 STRESS PERIOD TIME  12442.      207.36      3.4560     0.14400     3.94251E-04
         TOTAL TIME  98842.      1647.4      27.456      1.1440     3.13210E-03
1
 ------------------------------------------------------------------------------------------------------------
 
 SOLVING FOR TRANSPORT 

          SEQUENTIAL TRANSPORT ITERATION LOOP NUMBER    1
          -----------------------------------------------

 ------------------------------------------------------------------------------------------------------------------------
     1 CALLS TO SPARSE MATRIX SOLVER PACKAGE IN TRANSPORT TIME STEP     144 STRESS PERIOD       2 SPECIES  1

 TOTAL OF       1OUTER ITERATIONS
  MAXIMUM CHANGE FOR EACH ITERATION:
   MAX. CHANGE        NODE  MAX. CHANGE        NODE  MAX. CHANGE        NODE  MAX. CHANGE        NODE  MAX. CHANGE        NODE
 ------------------------------------------------------------------------------------------------------------------------------------
  -0.24167    ,       3150
     TRANSPORT SOLUTION COMPLETE FOR COMPONENT SPECIES NUMBER    1
     ------------------------------------------------------------

 TRANSPORT SOLUTION COMPLETE FOR ALL SPECIES, SORTING OUTPUT FOR CONCENTRATIONS AND MASS BALANCE
 ----------------------------------------------------------------------------------------------------
     TRANSPORT OUTPUT FOR COMPONENT SPECIES NUMBER    1
     ------------------------------------------------------------
 -------------------------------------------------------------------------------------
 
 SOLVING FOR HEAD 

 Outer-Iteration  Inner-Iteration  Backtracking  Number of        Incoming       Outgoing      Cutoff     Maximum Head Change      Maximum Head Change
     Number           Count           Flag       Backtracks       Residual       Residual      Residual            Value               Location
        1                             0             0          0.627184E-02     0.627184E-02   -1.00000    
        1               14                                                                                       0.139201E-03               3149           GWF-node number
        2                             0             0          0.169196E-06     0.169196E-06   -1.00000    
        2                1                                                                                      -0.426074E-06               3162           GWF-node number
     2 CALLS TO SPARSE MATRIX SOLVER PACKAGE  IN FLOW TIME STEP     145 STRESS PERIOD       2

 TOTAL OF       2OUTER ITERATIONS
  MAXIMUM CHANGE FOR EACH ITERATION:
   MAX. CHANGE        NODE  MAX. CHANGE        NODE  MAX. CHANGE        NODE  MAX. CHANGE        NODE  MAX. CHANGE        NODE
 ------------------------------------------------------------------------------------------------------------------------------------
   0.13920E-03,       3149 -0.42607E-06,       3162

 NO OUTPUT CONTROL FOR STRESS PERIOD        2   TIME STEP      145



          TIME SUMMARY AT END OF TIME STEP       145 IN STRESS PERIOD         2
                    SECONDS     MINUTES      HOURS       DAYS        YEARS
                    -----------------------------------------------------------
   TIME STEP LENGTH  86.400      1.4400     2.40000E-02 1.00000E-03 2.73785E-06
 STRESS PERIOD TIME  12528.      208.80      3.4800     0.14500     3.96988E-04
         TOTAL TIME  98928.      1648.8      27.480      1.1450     3.13484E-03
1
 ------------------------------------------------------------------------------------------------------------
 
 SOLVING FOR TRANSPORT 

          SEQUENTIAL TRANSPORT ITERATION LOOP NUMBER    1
          -----------------------------------------------

 ------------------------------------------------------------------------------------------------------------------------
     1 CALLS TO SPARSE MATRIX SOLVER PACKAGE IN TRANSPORT TIME STEP     145 STRESS PERIOD       2 SPECIES  1

 TOTAL OF       1OUTER ITERATIONS
  MAXIMUM CHANGE FOR EACH ITERATION:
   MAX. CHANGE        NODE  MAX. CHANGE        NODE  MAX. CHANGE        NODE  MAX. CHANGE        NODE  MAX. CHANGE        NODE
 ------------------------------------------------------------------------------------------------------------------------------------
  -0.23935    ,       3150
     TRANSPORT SOLUTION COMPLETE FOR COMPONENT SPECIES NUMBER    1
     ------------------------------------------------------------

 TRANSPORT SOLUTION COMPLETE FOR ALL SPECIES, SORTING OUTPUT FOR CONCENTRATIONS AND MASS BALANCE
 ----------------------------------------------------------------------------------------------------
     TRANSPORT OUTPUT FOR COMPONENT SPECIES NUMBER    1
     ------------------------------------------------------------
 -------------------------------------------------------------------------------------
 
 SOLVING FOR HEAD 

 Outer-Iteration  Inner-Iteration  Backtracking  Number of        Incoming       Outgoing      Cutoff     Maximum Head Change      Maximum Head Change
     Number           Count           Flag       Backtracks       Residual       Residual      Residual            Value               Location
        1                             0             0          0.112419E-01     0.112419E-01   -1.00000    
        1               13                                                                                       0.137955E-03               3149           GWF-node number
        2                             0             0          0.194608E-06     0.194608E-06   -1.00000    
        2                1                                                                                      -0.500868E-06               3084           GWF-node number
     2 CALLS TO SPARSE MATRIX SOLVER PACKAGE  IN FLOW TIME STEP     146 STRESS PERIOD       2

 TOTAL OF       2OUTER ITERATIONS
  MAXIMUM CHANGE FOR EACH ITERATION:
   MAX. CHANGE        NODE  MAX. CHANGE        NODE  MAX. CHANGE        NODE  MAX. CHANGE        NODE  MAX. CHANGE        NODE
 ------------------------------------------------------------------------------------------------------------------------------------
   0.13795E-03,       3149 -0.50087E-06,       3084

 NO OUTPUT CONTROL FOR STRESS PERIOD        2   TIME STEP      146



          TIME SUMMARY AT END OF TIME STEP       146 IN STRESS PERIOD         2
                    SECONDS     MINUTES      HOURS       DAYS        YEARS
                    -----------------------------------------------------------
   TIME STEP LENGTH  86.400      1.4400     2.40000E-02 1.00000E-03 2.73785E-06
 STRESS PERIOD TIME  12614.      210.24      3.5040     0.14600     3.99726E-04
         TOTAL TIME  99014.      1650.2      27.504      1.1460     3.13758E-03
1
 ------------------------------------------------------------------------------------------------------------
 
 SOLVING FOR TRANSPORT 

          SEQUENTIAL TRANSPORT ITERATION LOOP NUMBER    1
          -----------------------------------------------

 ------------------------------------------------------------------------------------------------------------------------
     1 CALLS TO SPARSE MATRIX SOLVER PACKAGE IN TRANSPORT TIME STEP     146 STRESS PERIOD       2 SPECIES  1

 TOTAL OF       1OUTER ITERATIONS
  MAXIMUM CHANGE FOR EACH ITERATION:
   MAX. CHANGE        NODE  MAX. CHANGE        NODE  MAX. CHANGE        NODE  MAX. CHANGE        NODE  MAX. CHANGE        NODE
 ------------------------------------------------------------------------------------------------------------------------------------
  -0.23617    ,       3150
     TRANSPORT SOLUTION COMPLETE FOR COMPONENT SPECIES NUMBER    1
     ------------------------------------------------------------

 TRANSPORT SOLUTION COMPLETE FOR ALL SPECIES, SORTING OUTPUT FOR CONCENTRATIONS AND MASS BALANCE
 ----------------------------------------------------------------------------------------------------
     TRANSPORT OUTPUT FOR COMPONENT SPECIES NUMBER    1
     ------------------------------------------------------------
 -------------------------------------------------------------------------------------
 
 SOLVING FOR HEAD 

 Outer-Iteration  Inner-Iteration  Backtracking  Number of        Incoming       Outgoing      Cutoff     Maximum Head Change      Maximum Head Change
     Number           Count           Flag       Backtracks       Residual       Residual      Residual            Value               Location
        1                             0             0          0.192753E-01     0.192753E-01   -1.00000    
        1               12                                                                                       0.136600E-03               3149           GWF-node number
        2                             0             0          0.434272E-06     0.434272E-06   -1.00000    
        2                2                                                                                      -0.113513E-05               3161           GWF-node number
     2 CALLS TO SPARSE MATRIX SOLVER PACKAGE  IN FLOW TIME STEP     147 STRESS PERIOD       2

 TOTAL OF       2OUTER ITERATIONS
  MAXIMUM CHANGE FOR EACH ITERATION:
   MAX. CHANGE        NODE  MAX. CHANGE        NODE  MAX. CHANGE        NODE  MAX. CHANGE        NODE  MAX. CHANGE        NODE
 ------------------------------------------------------------------------------------------------------------------------------------
   0.13660E-03,       3149 -0.11351E-05,       3161

 NO OUTPUT CONTROL FOR STRESS PERIOD        2   TIME STEP      147



          TIME SUMMARY AT END OF TIME STEP       147 IN STRESS PERIOD         2
                    SECONDS     MINUTES      HOURS       DAYS        YEARS
                    -----------------------------------------------------------
   TIME STEP LENGTH  86.400      1.4400     2.40000E-02 1.00000E-03 2.73785E-06
 STRESS PERIOD TIME  12701.      211.68      3.5280     0.14700     4.02464E-04
         TOTAL TIME  99101.      1651.7      27.528      1.1470     3.14031E-03
1
 ------------------------------------------------------------------------------------------------------------
 
 SOLVING FOR TRANSPORT 

          SEQUENTIAL TRANSPORT ITERATION LOOP NUMBER    1
          -----------------------------------------------

 ------------------------------------------------------------------------------------------------------------------------
     1 CALLS TO SPARSE MATRIX SOLVER PACKAGE IN TRANSPORT TIME STEP     147 STRESS PERIOD       2 SPECIES  1

 TOTAL OF       1OUTER ITERATIONS
  MAXIMUM CHANGE FOR EACH ITERATION:
   MAX. CHANGE        NODE  MAX. CHANGE        NODE  MAX. CHANGE        NODE  MAX. CHANGE        NODE  MAX. CHANGE        NODE
 ------------------------------------------------------------------------------------------------------------------------------------
  -0.25798    ,       1280
     TRANSPORT SOLUTION COMPLETE FOR COMPONENT SPECIES NUMBER    1
     ------------------------------------------------------------

 TRANSPORT SOLUTION COMPLETE FOR ALL SPECIES, SORTING OUTPUT FOR CONCENTRATIONS AND MASS BALANCE
 ----------------------------------------------------------------------------------------------------
     TRANSPORT OUTPUT FOR COMPONENT SPECIES NUMBER    1
     ------------------------------------------------------------
 -------------------------------------------------------------------------------------
 
 SOLVING FOR HEAD 

 Outer-Iteration  Inner-Iteration  Backtracking  Number of        Incoming       Outgoing      Cutoff     Maximum Head Change      Maximum Head Change
     Number           Count           Flag       Backtracks       Residual       Residual      Residual            Value               Location
        1                             0             0          0.310902E-01     0.310902E-01   -1.00000    
        1               12                                                                                       0.134481E-03               3150           GWF-node number
        2                             0             0          0.317962E-05     0.317962E-05   -1.00000    
        2                1                                                                                       0.840419E-06               3058           GWF-node number
     2 CALLS TO SPARSE MATRIX SOLVER PACKAGE  IN FLOW TIME STEP     148 STRESS PERIOD       2

 TOTAL OF       2OUTER ITERATIONS
  MAXIMUM CHANGE FOR EACH ITERATION:
   MAX. CHANGE        NODE  MAX. CHANGE        NODE  MAX. CHANGE        NODE  MAX. CHANGE        NODE  MAX. CHANGE        NODE
 ------------------------------------------------------------------------------------------------------------------------------------
   0.13448E-03,       3150  0.84042E-06,       3058

 NO OUTPUT CONTROL FOR STRESS PERIOD        2   TIME STEP      148



          TIME SUMMARY AT END OF TIME STEP       148 IN STRESS PERIOD         2
                    SECONDS     MINUTES      HOURS       DAYS        YEARS
                    -----------------------------------------------------------
   TIME STEP LENGTH  86.400      1.4400     2.40000E-02 1.00000E-03 2.73785E-06
 STRESS PERIOD TIME  12787.      213.12      3.5520     0.14800     4.05202E-04
         TOTAL TIME  99187.      1653.1      27.552      1.1480     3.14305E-03
1
 ------------------------------------------------------------------------------------------------------------
 
 SOLVING FOR TRANSPORT 

          SEQUENTIAL TRANSPORT ITERATION LOOP NUMBER    1
          -----------------------------------------------

 ------------------------------------------------------------------------------------------------------------------------
     1 CALLS TO SPARSE MATRIX SOLVER PACKAGE IN TRANSPORT TIME STEP     148 STRESS PERIOD       2 SPECIES  1

 TOTAL OF       1OUTER ITERATIONS
  MAXIMUM CHANGE FOR EACH ITERATION:
   MAX. CHANGE        NODE  MAX. CHANGE        NODE  MAX. CHANGE        NODE  MAX. CHANGE        NODE  MAX. CHANGE        NODE
 ------------------------------------------------------------------------------------------------------------------------------------
  -0.34669    ,       1280
     TRANSPORT SOLUTION COMPLETE FOR COMPONENT SPECIES NUMBER    1
     ------------------------------------------------------------

 TRANSPORT SOLUTION COMPLETE FOR ALL SPECIES, SORTING OUTPUT FOR CONCENTRATIONS AND MASS BALANCE
 ----------------------------------------------------------------------------------------------------
     TRANSPORT OUTPUT FOR COMPONENT SPECIES NUMBER    1
     ------------------------------------------------------------
 -------------------------------------------------------------------------------------
 
 SOLVING FOR HEAD 

 Outer-Iteration  Inner-Iteration  Backtracking  Number of        Incoming       Outgoing      Cutoff     Maximum Head Change      Maximum Head Change
     Number           Count           Flag       Backtracks       Residual       Residual      Residual            Value               Location
        1                             0             0          0.497203E-01     0.497203E-01   -1.00000    
        1               11                                                                                       0.127231E-03               3150           GWF-node number
        2                             0             0          0.360495E-05     0.360495E-05   -1.00000    
        2                1                                                                                       0.877000E-06               1696           GWF-node number
     2 CALLS TO SPARSE MATRIX SOLVER PACKAGE  IN FLOW TIME STEP     149 STRESS PERIOD       2

 TOTAL OF       2OUTER ITERATIONS
  MAXIMUM CHANGE FOR EACH ITERATION:
   MAX. CHANGE        NODE  MAX. CHANGE        NODE  MAX. CHANGE        NODE  MAX. CHANGE        NODE  MAX. CHANGE        NODE
 ------------------------------------------------------------------------------------------------------------------------------------
   0.12723E-03,       3150  0.87700E-06,       1696

 NO OUTPUT CONTROL FOR STRESS PERIOD        2   TIME STEP      149



          TIME SUMMARY AT END OF TIME STEP       149 IN STRESS PERIOD         2
                    SECONDS     MINUTES      HOURS       DAYS        YEARS
                    -----------------------------------------------------------
   TIME STEP LENGTH  86.400      1.4400     2.40000E-02 1.00000E-03 2.73785E-06
 STRESS PERIOD TIME  12874.      214.56      3.5760     0.14900     4.07940E-04
         TOTAL TIME  99274.      1654.6      27.576      1.1490     3.14579E-03
1
 ------------------------------------------------------------------------------------------------------------
 
 SOLVING FOR TRANSPORT 

          SEQUENTIAL TRANSPORT ITERATION LOOP NUMBER    1
          -----------------------------------------------

 ------------------------------------------------------------------------------------------------------------------------
     1 CALLS TO SPARSE MATRIX SOLVER PACKAGE IN TRANSPORT TIME STEP     149 STRESS PERIOD       2 SPECIES  1

 TOTAL OF       1OUTER ITERATIONS
  MAXIMUM CHANGE FOR EACH ITERATION:
   MAX. CHANGE        NODE  MAX. CHANGE        NODE  MAX. CHANGE        NODE  MAX. CHANGE        NODE  MAX. CHANGE        NODE
 ------------------------------------------------------------------------------------------------------------------------------------
  -0.22660    ,       3150
     TRANSPORT SOLUTION COMPLETE FOR COMPONENT SPECIES NUMBER    1
     ------------------------------------------------------------

 TRANSPORT SOLUTION COMPLETE FOR ALL SPECIES, SORTING OUTPUT FOR CONCENTRATIONS AND MASS BALANCE
 ----------------------------------------------------------------------------------------------------
     TRANSPORT OUTPUT FOR COMPONENT SPECIES NUMBER    1
     ------------------------------------------------------------
 -------------------------------------------------------------------------------------
 
 SOLVING FOR HEAD 

 Outer-Iteration  Inner-Iteration  Backtracking  Number of        Incoming       Outgoing      Cutoff     Maximum Head Change      Maximum Head Change
     Number           Count           Flag       Backtracks       Residual       Residual      Residual            Value               Location
        1                             0             0          0.176532E-01     0.176532E-01   -1.00000    
        1                9                                                                                       0.133500E-03               3150           GWF-node number
        2                             0             0          0.195318E-04     0.195318E-04   -1.00000    
        2                3                                                                                      -0.400354E-05                177           GWF-node number
     2 CALLS TO SPARSE MATRIX SOLVER PACKAGE  IN FLOW TIME STEP     150 STRESS PERIOD       2

 TOTAL OF       2OUTER ITERATIONS
  MAXIMUM CHANGE FOR EACH ITERATION:
   MAX. CHANGE        NODE  MAX. CHANGE        NODE  MAX. CHANGE        NODE  MAX. CHANGE        NODE  MAX. CHANGE        NODE
 ------------------------------------------------------------------------------------------------------------------------------------
   0.13350E-03,       3150 -0.40035E-05,        177

 NO OUTPUT CONTROL FOR STRESS PERIOD        2   TIME STEP      150



          TIME SUMMARY AT END OF TIME STEP       150 IN STRESS PERIOD         2
                    SECONDS     MINUTES      HOURS       DAYS        YEARS
                    -----------------------------------------------------------
   TIME STEP LENGTH  86.400      1.4400     2.40000E-02 1.00000E-03 2.73785E-06
 STRESS PERIOD TIME  12960.      216.00      3.6000     0.15000     4.10678E-04
         TOTAL TIME  99360.      1656.0      27.600      1.1500     3.14853E-03
1
 ------------------------------------------------------------------------------------------------------------
 
 SOLVING FOR TRANSPORT 

          SEQUENTIAL TRANSPORT ITERATION LOOP NUMBER    1
          -----------------------------------------------

 ------------------------------------------------------------------------------------------------------------------------
     1 CALLS TO SPARSE MATRIX SOLVER PACKAGE IN TRANSPORT TIME STEP     150 STRESS PERIOD       2 SPECIES  1

 TOTAL OF       1OUTER ITERATIONS
  MAXIMUM CHANGE FOR EACH ITERATION:
   MAX. CHANGE        NODE  MAX. CHANGE        NODE  MAX. CHANGE        NODE  MAX. CHANGE        NODE  MAX. CHANGE        NODE
 ------------------------------------------------------------------------------------------------------------------------------------
  -0.22556    ,       3151
     TRANSPORT SOLUTION COMPLETE FOR COMPONENT SPECIES NUMBER    1
     ------------------------------------------------------------

 TRANSPORT SOLUTION COMPLETE FOR ALL SPECIES, SORTING OUTPUT FOR CONCENTRATIONS AND MASS BALANCE
 ----------------------------------------------------------------------------------------------------
     TRANSPORT OUTPUT FOR COMPONENT SPECIES NUMBER    1
     ------------------------------------------------------------
 -------------------------------------------------------------------------------------
 
 SOLVING FOR HEAD 

 Outer-Iteration  Inner-Iteration  Backtracking  Number of        Incoming       Outgoing      Cutoff     Maximum Head Change      Maximum Head Change
     Number           Count           Flag       Backtracks       Residual       Residual      Residual            Value               Location
        1                             0             0          0.519800E-02     0.519800E-02   -1.00000    
        1               10                                                                                       0.132556E-03               3150           GWF-node number
        2                             0             0          0.433514E-05     0.433514E-05   -1.00000    
        2                2                                                                                      -0.245686E-05               3047           GWF-node number
     2 CALLS TO SPARSE MATRIX SOLVER PACKAGE  IN FLOW TIME STEP     151 STRESS PERIOD       2

 TOTAL OF       2OUTER ITERATIONS
  MAXIMUM CHANGE FOR EACH ITERATION:
   MAX. CHANGE        NODE  MAX. CHANGE        NODE  MAX. CHANGE        NODE  MAX. CHANGE        NODE  MAX. CHANGE        NODE
 ------------------------------------------------------------------------------------------------------------------------------------
   0.13256E-03,       3150 -0.24569E-05,       3047

 NO OUTPUT CONTROL FOR STRESS PERIOD        2   TIME STEP      151



          TIME SUMMARY AT END OF TIME STEP       151 IN STRESS PERIOD         2
                    SECONDS     MINUTES      HOURS       DAYS        YEARS
                    -----------------------------------------------------------
   TIME STEP LENGTH  86.400      1.4400     2.40000E-02 1.00000E-03 2.73785E-06
 STRESS PERIOD TIME  13046.      217.44      3.6240     0.15100     4.13415E-04
         TOTAL TIME  99446.      1657.4      27.624      1.1510     3.15127E-03
1
 ------------------------------------------------------------------------------------------------------------
 
 SOLVING FOR TRANSPORT 

          SEQUENTIAL TRANSPORT ITERATION LOOP NUMBER    1
          -----------------------------------------------

 ------------------------------------------------------------------------------------------------------------------------
     1 CALLS TO SPARSE MATRIX SOLVER PACKAGE IN TRANSPORT TIME STEP     151 STRESS PERIOD       2 SPECIES  1

 TOTAL OF       1OUTER ITERATIONS
  MAXIMUM CHANGE FOR EACH ITERATION:
   MAX. CHANGE        NODE  MAX. CHANGE        NODE  MAX. CHANGE        NODE  MAX. CHANGE        NODE  MAX. CHANGE        NODE
 ------------------------------------------------------------------------------------------------------------------------------------
   0.24450    ,       1440
     TRANSPORT SOLUTION COMPLETE FOR COMPONENT SPECIES NUMBER    1
     ------------------------------------------------------------

 TRANSPORT SOLUTION COMPLETE FOR ALL SPECIES, SORTING OUTPUT FOR CONCENTRATIONS AND MASS BALANCE
 ----------------------------------------------------------------------------------------------------
     TRANSPORT OUTPUT FOR COMPONENT SPECIES NUMBER    1
     ------------------------------------------------------------
 -------------------------------------------------------------------------------------
 
 SOLVING FOR HEAD 

 Outer-Iteration  Inner-Iteration  Backtracking  Number of        Incoming       Outgoing      Cutoff     Maximum Head Change      Maximum Head Change
     Number           Count           Flag       Backtracks       Residual       Residual      Residual            Value               Location
        1                             0             0          0.565430E-02     0.565430E-02   -1.00000    
        1               12                                                                                       0.136573E-03               3150           GWF-node number
        2                             0             0          0.307229E-06     0.307229E-06   -1.00000    
        2                1                                                                                       0.522397E-06               1465           GWF-node number
     2 CALLS TO SPARSE MATRIX SOLVER PACKAGE  IN FLOW TIME STEP     152 STRESS PERIOD       2

 TOTAL OF       2OUTER ITERATIONS
  MAXIMUM CHANGE FOR EACH ITERATION:
   MAX. CHANGE        NODE  MAX. CHANGE        NODE  MAX. CHANGE        NODE  MAX. CHANGE        NODE  MAX. CHANGE        NODE
 ------------------------------------------------------------------------------------------------------------------------------------
   0.13657E-03,       3150  0.52240E-06,       1465

 NO OUTPUT CONTROL FOR STRESS PERIOD        2   TIME STEP      152



          TIME SUMMARY AT END OF TIME STEP       152 IN STRESS PERIOD         2
                    SECONDS     MINUTES      HOURS       DAYS        YEARS
                    -----------------------------------------------------------
   TIME STEP LENGTH  86.400      1.4400     2.40000E-02 1.00000E-03 2.73785E-06
 STRESS PERIOD TIME  13133.      218.88      3.6480     0.15200     4.16153E-04
         TOTAL TIME  99533.      1658.9      27.648      1.1520     3.15400E-03
1
 ------------------------------------------------------------------------------------------------------------
 
 SOLVING FOR TRANSPORT 

          SEQUENTIAL TRANSPORT ITERATION LOOP NUMBER    1
          -----------------------------------------------

 ------------------------------------------------------------------------------------------------------------------------
     1 CALLS TO SPARSE MATRIX SOLVER PACKAGE IN TRANSPORT TIME STEP     152 STRESS PERIOD       2 SPECIES  1

 TOTAL OF       1OUTER ITERATIONS
  MAXIMUM CHANGE FOR EACH ITERATION:
   MAX. CHANGE        NODE  MAX. CHANGE        NODE  MAX. CHANGE        NODE  MAX. CHANGE        NODE  MAX. CHANGE        NODE
 ------------------------------------------------------------------------------------------------------------------------------------
   0.27431    ,       1440
     TRANSPORT SOLUTION COMPLETE FOR COMPONENT SPECIES NUMBER    1
     ------------------------------------------------------------

 TRANSPORT SOLUTION COMPLETE FOR ALL SPECIES, SORTING OUTPUT FOR CONCENTRATIONS AND MASS BALANCE
 ----------------------------------------------------------------------------------------------------
     TRANSPORT OUTPUT FOR COMPONENT SPECIES NUMBER    1
     ------------------------------------------------------------
 -------------------------------------------------------------------------------------
 
 SOLVING FOR HEAD 

 Outer-Iteration  Inner-Iteration  Backtracking  Number of        Incoming       Outgoing      Cutoff     Maximum Head Change      Maximum Head Change
     Number           Count           Flag       Backtracks       Residual       Residual      Residual            Value               Location
        1                             0             0          0.644061E-02     0.644061E-02   -1.00000    
        1               12                                                                                       0.135418E-03               3151           GWF-node number
        2                             0             0          0.117681E-05     0.117681E-05   -1.00000    
        2                1                                                                                       0.826264E-06               1289           GWF-node number
     2 CALLS TO SPARSE MATRIX SOLVER PACKAGE  IN FLOW TIME STEP     153 STRESS PERIOD       2

 TOTAL OF       2OUTER ITERATIONS
  MAXIMUM CHANGE FOR EACH ITERATION:
   MAX. CHANGE        NODE  MAX. CHANGE        NODE  MAX. CHANGE        NODE  MAX. CHANGE        NODE  MAX. CHANGE        NODE
 ------------------------------------------------------------------------------------------------------------------------------------
   0.13542E-03,       3151  0.82626E-06,       1289

 NO OUTPUT CONTROL FOR STRESS PERIOD        2   TIME STEP      153



          TIME SUMMARY AT END OF TIME STEP       153 IN STRESS PERIOD         2
                    SECONDS     MINUTES      HOURS       DAYS        YEARS
                    -----------------------------------------------------------
   TIME STEP LENGTH  86.400      1.4400     2.40000E-02 1.00000E-03 2.73785E-06
 STRESS PERIOD TIME  13219.      220.32      3.6720     0.15300     4.18891E-04
         TOTAL TIME  99619.      1660.3      27.672      1.1530     3.15674E-03
1
 ------------------------------------------------------------------------------------------------------------
 
 SOLVING FOR TRANSPORT 

          SEQUENTIAL TRANSPORT ITERATION LOOP NUMBER    1
          -----------------------------------------------

 ------------------------------------------------------------------------------------------------------------------------
     1 CALLS TO SPARSE MATRIX SOLVER PACKAGE IN TRANSPORT TIME STEP     153 STRESS PERIOD       2 SPECIES  1

 TOTAL OF       1OUTER ITERATIONS
  MAXIMUM CHANGE FOR EACH ITERATION:
   MAX. CHANGE        NODE  MAX. CHANGE        NODE  MAX. CHANGE        NODE  MAX. CHANGE        NODE  MAX. CHANGE        NODE
 ------------------------------------------------------------------------------------------------------------------------------------
   0.23947    ,       1440
     TRANSPORT SOLUTION COMPLETE FOR COMPONENT SPECIES NUMBER    1
     ------------------------------------------------------------

 TRANSPORT SOLUTION COMPLETE FOR ALL SPECIES, SORTING OUTPUT FOR CONCENTRATIONS AND MASS BALANCE
 ----------------------------------------------------------------------------------------------------
     TRANSPORT OUTPUT FOR COMPONENT SPECIES NUMBER    1
     ------------------------------------------------------------
 -------------------------------------------------------------------------------------
 
 SOLVING FOR HEAD 

 Outer-Iteration  Inner-Iteration  Backtracking  Number of        Incoming       Outgoing      Cutoff     Maximum Head Change      Maximum Head Change
     Number           Count           Flag       Backtracks       Residual       Residual      Residual            Value               Location
        1                             0             0          0.531792E-02     0.531792E-02   -1.00000    
        1               13                                                                                       0.132693E-03               3151           GWF-node number
        2                             0             0          0.213749E-06     0.213749E-06   -1.00000    
        2                1                                                                                       0.713206E-06               3063           GWF-node number
     2 CALLS TO SPARSE MATRIX SOLVER PACKAGE  IN FLOW TIME STEP     154 STRESS PERIOD       2

 TOTAL OF       2OUTER ITERATIONS
  MAXIMUM CHANGE FOR EACH ITERATION:
   MAX. CHANGE        NODE  MAX. CHANGE        NODE  MAX. CHANGE        NODE  MAX. CHANGE        NODE  MAX. CHANGE        NODE
 ------------------------------------------------------------------------------------------------------------------------------------
   0.13269E-03,       3151  0.71321E-06,       3063

 NO OUTPUT CONTROL FOR STRESS PERIOD        2   TIME STEP      154



          TIME SUMMARY AT END OF TIME STEP       154 IN STRESS PERIOD         2
                    SECONDS     MINUTES      HOURS       DAYS        YEARS
                    -----------------------------------------------------------
   TIME STEP LENGTH  86.400      1.4400     2.40000E-02 1.00000E-03 2.73785E-06
 STRESS PERIOD TIME  13306.      221.76      3.6960     0.15400     4.21629E-04
         TOTAL TIME  99706.      1661.8      27.696      1.1540     3.15948E-03
1
 ------------------------------------------------------------------------------------------------------------
 
 SOLVING FOR TRANSPORT 

          SEQUENTIAL TRANSPORT ITERATION LOOP NUMBER    1
          -----------------------------------------------

 ------------------------------------------------------------------------------------------------------------------------
     1 CALLS TO SPARSE MATRIX SOLVER PACKAGE IN TRANSPORT TIME STEP     154 STRESS PERIOD       2 SPECIES  1

 TOTAL OF       1OUTER ITERATIONS
  MAXIMUM CHANGE FOR EACH ITERATION:
   MAX. CHANGE        NODE  MAX. CHANGE        NODE  MAX. CHANGE        NODE  MAX. CHANGE        NODE  MAX. CHANGE        NODE
 ------------------------------------------------------------------------------------------------------------------------------------
   0.24773    ,       1360
     TRANSPORT SOLUTION COMPLETE FOR COMPONENT SPECIES NUMBER    1
     ------------------------------------------------------------

 TRANSPORT SOLUTION COMPLETE FOR ALL SPECIES, SORTING OUTPUT FOR CONCENTRATIONS AND MASS BALANCE
 ----------------------------------------------------------------------------------------------------
     TRANSPORT OUTPUT FOR COMPONENT SPECIES NUMBER    1
     ------------------------------------------------------------
 -------------------------------------------------------------------------------------
 
 SOLVING FOR HEAD 

 Outer-Iteration  Inner-Iteration  Backtracking  Number of        Incoming       Outgoing      Cutoff     Maximum Head Change      Maximum Head Change
     Number           Count           Flag       Backtracks       Residual       Residual      Residual            Value               Location
        1                             0             0          0.472936E-02     0.472936E-02   -1.00000    
        1               12                                                                                       0.133224E-03               3151           GWF-node number
        2                             0             0          0.279890E-06     0.279890E-06   -1.00000    
        2                1                                                                                       0.409706E-06               2881           GWF-node number
     2 CALLS TO SPARSE MATRIX SOLVER PACKAGE  IN FLOW TIME STEP     155 STRESS PERIOD       2

 TOTAL OF       2OUTER ITERATIONS
  MAXIMUM CHANGE FOR EACH ITERATION:
   MAX. CHANGE        NODE  MAX. CHANGE        NODE  MAX. CHANGE        NODE  MAX. CHANGE        NODE  MAX. CHANGE        NODE
 ------------------------------------------------------------------------------------------------------------------------------------
   0.13322E-03,       3151  0.40971E-06,       2881

 NO OUTPUT CONTROL FOR STRESS PERIOD        2   TIME STEP      155



          TIME SUMMARY AT END OF TIME STEP       155 IN STRESS PERIOD         2
                    SECONDS     MINUTES      HOURS       DAYS        YEARS
                    -----------------------------------------------------------
   TIME STEP LENGTH  86.400      1.4400     2.40000E-02 1.00000E-03 2.73785E-06
 STRESS PERIOD TIME  13392.      223.20      3.7200     0.15500     4.24367E-04
         TOTAL TIME  99792.      1663.2      27.720      1.1550     3.16222E-03
1
 ------------------------------------------------------------------------------------------------------------
 
 SOLVING FOR TRANSPORT 

          SEQUENTIAL TRANSPORT ITERATION LOOP NUMBER    1
          -----------------------------------------------

 ------------------------------------------------------------------------------------------------------------------------
     1 CALLS TO SPARSE MATRIX SOLVER PACKAGE IN TRANSPORT TIME STEP     155 STRESS PERIOD       2 SPECIES  1

 TOTAL OF       1OUTER ITERATIONS
  MAXIMUM CHANGE FOR EACH ITERATION:
   MAX. CHANGE        NODE  MAX. CHANGE        NODE  MAX. CHANGE        NODE  MAX. CHANGE        NODE  MAX. CHANGE        NODE
 ------------------------------------------------------------------------------------------------------------------------------------
   0.24587    ,       1360
     TRANSPORT SOLUTION COMPLETE FOR COMPONENT SPECIES NUMBER    1
     ------------------------------------------------------------

 TRANSPORT SOLUTION COMPLETE FOR ALL SPECIES, SORTING OUTPUT FOR CONCENTRATIONS AND MASS BALANCE
 ----------------------------------------------------------------------------------------------------
     TRANSPORT OUTPUT FOR COMPONENT SPECIES NUMBER    1
     ------------------------------------------------------------
 -------------------------------------------------------------------------------------
 
 SOLVING FOR HEAD 

 Outer-Iteration  Inner-Iteration  Backtracking  Number of        Incoming       Outgoing      Cutoff     Maximum Head Change      Maximum Head Change
     Number           Count           Flag       Backtracks       Residual       Residual      Residual            Value               Location
        1                             0             0          0.563036E-02     0.563036E-02   -1.00000    
        1               12                                                                                       0.129604E-03               3151           GWF-node number
        2                             0             0          0.123662E-06     0.123662E-06   -1.00000    
        2                1                                                                                      -0.358549E-06               2931           GWF-node number
     2 CALLS TO SPARSE MATRIX SOLVER PACKAGE  IN FLOW TIME STEP     156 STRESS PERIOD       2

 TOTAL OF       2OUTER ITERATIONS
  MAXIMUM CHANGE FOR EACH ITERATION:
   MAX. CHANGE        NODE  MAX. CHANGE        NODE  MAX. CHANGE        NODE  MAX. CHANGE        NODE  MAX. CHANGE        NODE
 ------------------------------------------------------------------------------------------------------------------------------------
   0.12960E-03,       3151 -0.35855E-06,       2931

 NO OUTPUT CONTROL FOR STRESS PERIOD        2   TIME STEP      156



          TIME SUMMARY AT END OF TIME STEP       156 IN STRESS PERIOD         2
                    SECONDS     MINUTES      HOURS       DAYS        YEARS
                    -----------------------------------------------------------
   TIME STEP LENGTH  86.400      1.4400     2.40000E-02 1.00000E-03 2.73785E-06
 STRESS PERIOD TIME  13478.      224.64      3.7440     0.15600     4.27105E-04
         TOTAL TIME  99878.      1664.6      27.744      1.1560     3.16496E-03
1
 ------------------------------------------------------------------------------------------------------------
 
 SOLVING FOR TRANSPORT 

          SEQUENTIAL TRANSPORT ITERATION LOOP NUMBER    1
          -----------------------------------------------

 ------------------------------------------------------------------------------------------------------------------------
     1 CALLS TO SPARSE MATRIX SOLVER PACKAGE IN TRANSPORT TIME STEP     156 STRESS PERIOD       2 SPECIES  1

 TOTAL OF       1OUTER ITERATIONS
  MAXIMUM CHANGE FOR EACH ITERATION:
   MAX. CHANGE        NODE  MAX. CHANGE        NODE  MAX. CHANGE        NODE  MAX. CHANGE        NODE  MAX. CHANGE        NODE
 ------------------------------------------------------------------------------------------------------------------------------------
  -0.20921    ,       3152
     TRANSPORT SOLUTION COMPLETE FOR COMPONENT SPECIES NUMBER    1
     ------------------------------------------------------------

 TRANSPORT SOLUTION COMPLETE FOR ALL SPECIES, SORTING OUTPUT FOR CONCENTRATIONS AND MASS BALANCE
 ----------------------------------------------------------------------------------------------------
     TRANSPORT OUTPUT FOR COMPONENT SPECIES NUMBER    1
     ------------------------------------------------------------
 -------------------------------------------------------------------------------------
 
 SOLVING FOR HEAD 

 Outer-Iteration  Inner-Iteration  Backtracking  Number of        Incoming       Outgoing      Cutoff     Maximum Head Change      Maximum Head Change
     Number           Count           Flag       Backtracks       Residual       Residual      Residual            Value               Location
        1                             0             0          0.502161E-02     0.502161E-02   -1.00000    
        1               12                                                                                       0.127109E-03               3151           GWF-node number
        2                             0             0          0.291847E-06     0.291847E-06   -1.00000    
        2                1                                                                                      -0.567727E-06               3161           GWF-node number
     2 CALLS TO SPARSE MATRIX SOLVER PACKAGE  IN FLOW TIME STEP     157 STRESS PERIOD       2

 TOTAL OF       2OUTER ITERATIONS
  MAXIMUM CHANGE FOR EACH ITERATION:
   MAX. CHANGE        NODE  MAX. CHANGE        NODE  MAX. CHANGE        NODE  MAX. CHANGE        NODE  MAX. CHANGE        NODE
 ------------------------------------------------------------------------------------------------------------------------------------
   0.12711E-03,       3151 -0.56773E-06,       3161

 NO OUTPUT CONTROL FOR STRESS PERIOD        2   TIME STEP      157



          TIME SUMMARY AT END OF TIME STEP       157 IN STRESS PERIOD         2
                    SECONDS     MINUTES      HOURS       DAYS        YEARS
                    -----------------------------------------------------------
   TIME STEP LENGTH  86.400      1.4400     2.40000E-02 1.00000E-03 2.73785E-06
 STRESS PERIOD TIME  13565.      226.08      3.7680     0.15700     4.29843E-04
         TOTAL TIME  99965.      1666.1      27.768      1.1570     3.16769E-03
1
 ------------------------------------------------------------------------------------------------------------
 
 SOLVING FOR TRANSPORT 

          SEQUENTIAL TRANSPORT ITERATION LOOP NUMBER    1
          -----------------------------------------------

 ------------------------------------------------------------------------------------------------------------------------
     1 CALLS TO SPARSE MATRIX SOLVER PACKAGE IN TRANSPORT TIME STEP     157 STRESS PERIOD       2 SPECIES  1

 TOTAL OF       1OUTER ITERATIONS
  MAXIMUM CHANGE FOR EACH ITERATION:
   MAX. CHANGE        NODE  MAX. CHANGE        NODE  MAX. CHANGE        NODE  MAX. CHANGE        NODE  MAX. CHANGE        NODE
 ------------------------------------------------------------------------------------------------------------------------------------
  -0.20670    ,       3152
     TRANSPORT SOLUTION COMPLETE FOR COMPONENT SPECIES NUMBER    1
     ------------------------------------------------------------

 TRANSPORT SOLUTION COMPLETE FOR ALL SPECIES, SORTING OUTPUT FOR CONCENTRATIONS AND MASS BALANCE
 ----------------------------------------------------------------------------------------------------
     TRANSPORT OUTPUT FOR COMPONENT SPECIES NUMBER    1
     ------------------------------------------------------------
 -------------------------------------------------------------------------------------
 
 SOLVING FOR HEAD 

 Outer-Iteration  Inner-Iteration  Backtracking  Number of        Incoming       Outgoing      Cutoff     Maximum Head Change      Maximum Head Change
     Number           Count           Flag       Backtracks       Residual       Residual      Residual            Value               Location
        1                             0             0          0.409825E-02     0.409825E-02   -1.00000    
        1               13                                                                                       0.121634E-03               3151           GWF-node number
        2                             0             0          0.108348E-06     0.108348E-06   -1.00000    
        2                1                                                                                       0.233734E-06               3063           GWF-node number
     2 CALLS TO SPARSE MATRIX SOLVER PACKAGE  IN FLOW TIME STEP     158 STRESS PERIOD       2

 TOTAL OF       2OUTER ITERATIONS
  MAXIMUM CHANGE FOR EACH ITERATION:
   MAX. CHANGE        NODE  MAX. CHANGE        NODE  MAX. CHANGE        NODE  MAX. CHANGE        NODE  MAX. CHANGE        NODE
 ------------------------------------------------------------------------------------------------------------------------------------
   0.12163E-03,       3151  0.23373E-06,       3063

 NO OUTPUT CONTROL FOR STRESS PERIOD        2   TIME STEP      158



          TIME SUMMARY AT END OF TIME STEP       158 IN STRESS PERIOD         2
                    SECONDS     MINUTES      HOURS       DAYS        YEARS
                    -----------------------------------------------------------
   TIME STEP LENGTH  86.400      1.4400     2.40000E-02 1.00000E-03 2.73785E-06
 STRESS PERIOD TIME  13651.      227.52      3.7920     0.15800     4.32580E-04
         TOTAL TIME 1.00051E+05  1667.5      27.792      1.1580     3.17043E-03
1
 ------------------------------------------------------------------------------------------------------------
 
 SOLVING FOR TRANSPORT 

          SEQUENTIAL TRANSPORT ITERATION LOOP NUMBER    1
          -----------------------------------------------

 ------------------------------------------------------------------------------------------------------------------------
     1 CALLS TO SPARSE MATRIX SOLVER PACKAGE IN TRANSPORT TIME STEP     158 STRESS PERIOD       2 SPECIES  1

 TOTAL OF       1OUTER ITERATIONS
  MAXIMUM CHANGE FOR EACH ITERATION:
   MAX. CHANGE        NODE  MAX. CHANGE        NODE  MAX. CHANGE        NODE  MAX. CHANGE        NODE  MAX. CHANGE        NODE
 ------------------------------------------------------------------------------------------------------------------------------------
  -0.20349    ,       3152
     TRANSPORT SOLUTION COMPLETE FOR COMPONENT SPECIES NUMBER    1
     ------------------------------------------------------------

 TRANSPORT SOLUTION COMPLETE FOR ALL SPECIES, SORTING OUTPUT FOR CONCENTRATIONS AND MASS BALANCE
 ----------------------------------------------------------------------------------------------------
     TRANSPORT OUTPUT FOR COMPONENT SPECIES NUMBER    1
     ------------------------------------------------------------
 -------------------------------------------------------------------------------------
 
 SOLVING FOR HEAD 

 Outer-Iteration  Inner-Iteration  Backtracking  Number of        Incoming       Outgoing      Cutoff     Maximum Head Change      Maximum Head Change
     Number           Count           Flag       Backtracks       Residual       Residual      Residual            Value               Location
        1                             0             0          0.351485E-02     0.351485E-02   -1.00000    
        1               11                                                                                       0.118982E-03               3151           GWF-node number
        2                             0             0          0.574779E-06     0.574779E-06   -1.00000    
        2                2                                                                                      -0.410995E-06               2929           GWF-node number
     2 CALLS TO SPARSE MATRIX SOLVER PACKAGE  IN FLOW TIME STEP     159 STRESS PERIOD       2

 TOTAL OF       2OUTER ITERATIONS
  MAXIMUM CHANGE FOR EACH ITERATION:
   MAX. CHANGE        NODE  MAX. CHANGE        NODE  MAX. CHANGE        NODE  MAX. CHANGE        NODE  MAX. CHANGE        NODE
 ------------------------------------------------------------------------------------------------------------------------------------
   0.11898E-03,       3151 -0.41099E-06,       2929

 NO OUTPUT CONTROL FOR STRESS PERIOD        2   TIME STEP      159



          TIME SUMMARY AT END OF TIME STEP       159 IN STRESS PERIOD         2
                    SECONDS     MINUTES      HOURS       DAYS        YEARS
                    -----------------------------------------------------------
   TIME STEP LENGTH  86.400      1.4400     2.40000E-02 1.00000E-03 2.73785E-06
 STRESS PERIOD TIME  13738.      228.96      3.8160     0.15900     4.35318E-04
         TOTAL TIME 1.00138E+05  1669.0      27.816      1.1590     3.17317E-03
1
 ------------------------------------------------------------------------------------------------------------
 
 SOLVING FOR TRANSPORT 

          SEQUENTIAL TRANSPORT ITERATION LOOP NUMBER    1
          -----------------------------------------------

 ------------------------------------------------------------------------------------------------------------------------
     1 CALLS TO SPARSE MATRIX SOLVER PACKAGE IN TRANSPORT TIME STEP     159 STRESS PERIOD       2 SPECIES  1

 TOTAL OF       1OUTER ITERATIONS
  MAXIMUM CHANGE FOR EACH ITERATION:
   MAX. CHANGE        NODE  MAX. CHANGE        NODE  MAX. CHANGE        NODE  MAX. CHANGE        NODE  MAX. CHANGE        NODE
 ------------------------------------------------------------------------------------------------------------------------------------
  -0.20175    ,       3152
     TRANSPORT SOLUTION COMPLETE FOR COMPONENT SPECIES NUMBER    1
     ------------------------------------------------------------

 TRANSPORT SOLUTION COMPLETE FOR ALL SPECIES, SORTING OUTPUT FOR CONCENTRATIONS AND MASS BALANCE
 ----------------------------------------------------------------------------------------------------
     TRANSPORT OUTPUT FOR COMPONENT SPECIES NUMBER    1
     ------------------------------------------------------------
 -------------------------------------------------------------------------------------
 
 SOLVING FOR HEAD 

 Outer-Iteration  Inner-Iteration  Backtracking  Number of        Incoming       Outgoing      Cutoff     Maximum Head Change      Maximum Head Change
     Number           Count           Flag       Backtracks       Residual       Residual      Residual            Value               Location
        1                             0             0          0.417892E-02     0.417892E-02   -1.00000    
        1               12                                                                                       0.115035E-03               3152           GWF-node number
        2                             0             0          0.355458E-06     0.355458E-06   -1.00000    
        2                1                                                                                       0.351657E-06               1488           GWF-node number
     2 CALLS TO SPARSE MATRIX SOLVER PACKAGE  IN FLOW TIME STEP     160 STRESS PERIOD       2

 TOTAL OF       2OUTER ITERATIONS
  MAXIMUM CHANGE FOR EACH ITERATION:
   MAX. CHANGE        NODE  MAX. CHANGE        NODE  MAX. CHANGE        NODE  MAX. CHANGE        NODE  MAX. CHANGE        NODE
 ------------------------------------------------------------------------------------------------------------------------------------
   0.11504E-03,       3152  0.35166E-06,       1488

 NO OUTPUT CONTROL FOR STRESS PERIOD        2   TIME STEP      160



          TIME SUMMARY AT END OF TIME STEP       160 IN STRESS PERIOD         2
                    SECONDS     MINUTES      HOURS       DAYS        YEARS
                    -----------------------------------------------------------
   TIME STEP LENGTH  86.400      1.4400     2.40000E-02 1.00000E-03 2.73785E-06
 STRESS PERIOD TIME  13824.      230.40      3.8400     0.16000     4.38056E-04
         TOTAL TIME 1.00224E+05  1670.4      27.840      1.1600     3.17591E-03
1
 ------------------------------------------------------------------------------------------------------------
 
 SOLVING FOR TRANSPORT 

          SEQUENTIAL TRANSPORT ITERATION LOOP NUMBER    1
          -----------------------------------------------

 ------------------------------------------------------------------------------------------------------------------------
     1 CALLS TO SPARSE MATRIX SOLVER PACKAGE IN TRANSPORT TIME STEP     160 STRESS PERIOD       2 SPECIES  1

 TOTAL OF       1OUTER ITERATIONS
  MAXIMUM CHANGE FOR EACH ITERATION:
   MAX. CHANGE        NODE  MAX. CHANGE        NODE  MAX. CHANGE        NODE  MAX. CHANGE        NODE  MAX. CHANGE        NODE
 ------------------------------------------------------------------------------------------------------------------------------------
  -0.19844    ,       3152
     TRANSPORT SOLUTION COMPLETE FOR COMPONENT SPECIES NUMBER    1
     ------------------------------------------------------------

 TRANSPORT SOLUTION COMPLETE FOR ALL SPECIES, SORTING OUTPUT FOR CONCENTRATIONS AND MASS BALANCE
 ----------------------------------------------------------------------------------------------------
     TRANSPORT OUTPUT FOR COMPONENT SPECIES NUMBER    1
     ------------------------------------------------------------
 -------------------------------------------------------------------------------------
 
 SOLVING FOR HEAD 

 Outer-Iteration  Inner-Iteration  Backtracking  Number of        Incoming       Outgoing      Cutoff     Maximum Head Change      Maximum Head Change
     Number           Count           Flag       Backtracks       Residual       Residual      Residual            Value               Location
        1                             0             0          0.563151E-02     0.563151E-02   -1.00000    
        1               11                                                                                       0.111119E-03               3152           GWF-node number
        2                             0             0          0.533595E-06     0.533595E-06   -1.00000    
        2                1                                                                                      -0.438856E-06               2931           GWF-node number
     2 CALLS TO SPARSE MATRIX SOLVER PACKAGE  IN FLOW TIME STEP     161 STRESS PERIOD       2

 TOTAL OF       2OUTER ITERATIONS
  MAXIMUM CHANGE FOR EACH ITERATION:
   MAX. CHANGE        NODE  MAX. CHANGE        NODE  MAX. CHANGE        NODE  MAX. CHANGE        NODE  MAX. CHANGE        NODE
 ------------------------------------------------------------------------------------------------------------------------------------
   0.11112E-03,       3152 -0.43886E-06,       2931

 NO OUTPUT CONTROL FOR STRESS PERIOD        2   TIME STEP      161



          TIME SUMMARY AT END OF TIME STEP       161 IN STRESS PERIOD         2
                    SECONDS     MINUTES      HOURS       DAYS        YEARS
                    -----------------------------------------------------------
   TIME STEP LENGTH  86.400      1.4400     2.40000E-02 1.00000E-03 2.73785E-06
 STRESS PERIOD TIME  13910.      231.84      3.8640     0.16100     4.40794E-04
         TOTAL TIME 1.00310E+05  1671.8      27.864      1.1610     3.17864E-03
1
 ------------------------------------------------------------------------------------------------------------
 
 SOLVING FOR TRANSPORT 

          SEQUENTIAL TRANSPORT ITERATION LOOP NUMBER    1
          -----------------------------------------------

 ------------------------------------------------------------------------------------------------------------------------
     1 CALLS TO SPARSE MATRIX SOLVER PACKAGE IN TRANSPORT TIME STEP     161 STRESS PERIOD       2 SPECIES  1

 TOTAL OF       1OUTER ITERATIONS
  MAXIMUM CHANGE FOR EACH ITERATION:
   MAX. CHANGE        NODE  MAX. CHANGE        NODE  MAX. CHANGE        NODE  MAX. CHANGE        NODE  MAX. CHANGE        NODE
 ------------------------------------------------------------------------------------------------------------------------------------
  -0.20095    ,       1600
     TRANSPORT SOLUTION COMPLETE FOR COMPONENT SPECIES NUMBER    1
     ------------------------------------------------------------

 TRANSPORT SOLUTION COMPLETE FOR ALL SPECIES, SORTING OUTPUT FOR CONCENTRATIONS AND MASS BALANCE
 ----------------------------------------------------------------------------------------------------
     TRANSPORT OUTPUT FOR COMPONENT SPECIES NUMBER    1
     ------------------------------------------------------------
 -------------------------------------------------------------------------------------
 
 SOLVING FOR HEAD 

 Outer-Iteration  Inner-Iteration  Backtracking  Number of        Incoming       Outgoing      Cutoff     Maximum Head Change      Maximum Head Change
     Number           Count           Flag       Backtracks       Residual       Residual      Residual            Value               Location
        1                             0             0          0.646366E-02     0.646366E-02   -1.00000    
        1               11                                                                                       0.109694E-03               3152           GWF-node number
        2                             0             0          0.650788E-06     0.650788E-06   -1.00000    
        2                1                                                                                       0.792676E-06               2641           GWF-node number
     2 CALLS TO SPARSE MATRIX SOLVER PACKAGE  IN FLOW TIME STEP     162 STRESS PERIOD       2

 TOTAL OF       2OUTER ITERATIONS
  MAXIMUM CHANGE FOR EACH ITERATION:
   MAX. CHANGE        NODE  MAX. CHANGE        NODE  MAX. CHANGE        NODE  MAX. CHANGE        NODE  MAX. CHANGE        NODE
 ------------------------------------------------------------------------------------------------------------------------------------
   0.10969E-03,       3152  0.79268E-06,       2641

 NO OUTPUT CONTROL FOR STRESS PERIOD        2   TIME STEP      162



          TIME SUMMARY AT END OF TIME STEP       162 IN STRESS PERIOD         2
                    SECONDS     MINUTES      HOURS       DAYS        YEARS
                    -----------------------------------------------------------
   TIME STEP LENGTH  86.400      1.4400     2.40000E-02 1.00000E-03 2.73785E-06
 STRESS PERIOD TIME  13997.      233.28      3.8880     0.16200     4.43532E-04
         TOTAL TIME 1.00397E+05  1673.3      27.888      1.1620     3.18138E-03
1
 ------------------------------------------------------------------------------------------------------------
 
 SOLVING FOR TRANSPORT 

          SEQUENTIAL TRANSPORT ITERATION LOOP NUMBER    1
          -----------------------------------------------

 ------------------------------------------------------------------------------------------------------------------------
     1 CALLS TO SPARSE MATRIX SOLVER PACKAGE IN TRANSPORT TIME STEP     162 STRESS PERIOD       2 SPECIES  1

 TOTAL OF       1OUTER ITERATIONS
  MAXIMUM CHANGE FOR EACH ITERATION:
   MAX. CHANGE        NODE  MAX. CHANGE        NODE  MAX. CHANGE        NODE  MAX. CHANGE        NODE  MAX. CHANGE        NODE
 ------------------------------------------------------------------------------------------------------------------------------------
  -0.20268    ,       1600
     TRANSPORT SOLUTION COMPLETE FOR COMPONENT SPECIES NUMBER    1
     ------------------------------------------------------------

 TRANSPORT SOLUTION COMPLETE FOR ALL SPECIES, SORTING OUTPUT FOR CONCENTRATIONS AND MASS BALANCE
 ----------------------------------------------------------------------------------------------------
     TRANSPORT OUTPUT FOR COMPONENT SPECIES NUMBER    1
     ------------------------------------------------------------
 -------------------------------------------------------------------------------------
 
 SOLVING FOR HEAD 

 Outer-Iteration  Inner-Iteration  Backtracking  Number of        Incoming       Outgoing      Cutoff     Maximum Head Change      Maximum Head Change
     Number           Count           Flag       Backtracks       Residual       Residual      Residual            Value               Location
        1                             0             0          0.684534E-02     0.684534E-02   -1.00000    
        1               14                                                                                       0.107352E-03               3152           GWF-node number
        2                             0             0          0.507835E-07     0.507835E-07   -1.00000    
        2                1                                                                                      -0.405669E-06               3083           GWF-node number
     2 CALLS TO SPARSE MATRIX SOLVER PACKAGE  IN FLOW TIME STEP     163 STRESS PERIOD       2

 TOTAL OF       2OUTER ITERATIONS
  MAXIMUM CHANGE FOR EACH ITERATION:
   MAX. CHANGE        NODE  MAX. CHANGE        NODE  MAX. CHANGE        NODE  MAX. CHANGE        NODE  MAX. CHANGE        NODE
 ------------------------------------------------------------------------------------------------------------------------------------
   0.10735E-03,       3152 -0.40567E-06,       3083

 NO OUTPUT CONTROL FOR STRESS PERIOD        2   TIME STEP      163



          TIME SUMMARY AT END OF TIME STEP       163 IN STRESS PERIOD         2
                    SECONDS     MINUTES      HOURS       DAYS        YEARS
                    -----------------------------------------------------------
   TIME STEP LENGTH  86.400      1.4400     2.40000E-02 1.00000E-03 2.73785E-06
 STRESS PERIOD TIME  14083.      234.72      3.9120     0.16300     4.46270E-04
         TOTAL TIME 1.00483E+05  1674.7      27.912      1.1630     3.18412E-03
1
 ------------------------------------------------------------------------------------------------------------
 
 SOLVING FOR TRANSPORT 

          SEQUENTIAL TRANSPORT ITERATION LOOP NUMBER    1
          -----------------------------------------------

 ------------------------------------------------------------------------------------------------------------------------
     1 CALLS TO SPARSE MATRIX SOLVER PACKAGE IN TRANSPORT TIME STEP     163 STRESS PERIOD       2 SPECIES  1

 TOTAL OF       1OUTER ITERATIONS
  MAXIMUM CHANGE FOR EACH ITERATION:
   MAX. CHANGE        NODE  MAX. CHANGE        NODE  MAX. CHANGE        NODE  MAX. CHANGE        NODE  MAX. CHANGE        NODE
 ------------------------------------------------------------------------------------------------------------------------------------
  -0.24508    ,       1520
     TRANSPORT SOLUTION COMPLETE FOR COMPONENT SPECIES NUMBER    1
     ------------------------------------------------------------

 TRANSPORT SOLUTION COMPLETE FOR ALL SPECIES, SORTING OUTPUT FOR CONCENTRATIONS AND MASS BALANCE
 ----------------------------------------------------------------------------------------------------
     TRANSPORT OUTPUT FOR COMPONENT SPECIES NUMBER    1
     ------------------------------------------------------------
 -------------------------------------------------------------------------------------
 
 SOLVING FOR HEAD 

 Outer-Iteration  Inner-Iteration  Backtracking  Number of        Incoming       Outgoing      Cutoff     Maximum Head Change      Maximum Head Change
     Number           Count           Flag       Backtracks       Residual       Residual      Residual            Value               Location
        1                             0             0          0.794667E-02     0.794667E-02   -1.00000    
        1               13                                                                                       0.104989E-03               3152           GWF-node number
        2                             0             0          0.125901E-06     0.125901E-06   -1.00000    
        2                2                                                                                       0.587272E-06               2801           GWF-node number
     2 CALLS TO SPARSE MATRIX SOLVER PACKAGE  IN FLOW TIME STEP     164 STRESS PERIOD       2

 TOTAL OF       2OUTER ITERATIONS
  MAXIMUM CHANGE FOR EACH ITERATION:
   MAX. CHANGE        NODE  MAX. CHANGE        NODE  MAX. CHANGE        NODE  MAX. CHANGE        NODE  MAX. CHANGE        NODE
 ------------------------------------------------------------------------------------------------------------------------------------
   0.10499E-03,       3152  0.58727E-06,       2801

 NO OUTPUT CONTROL FOR STRESS PERIOD        2   TIME STEP      164



          TIME SUMMARY AT END OF TIME STEP       164 IN STRESS PERIOD         2
                    SECONDS     MINUTES      HOURS       DAYS        YEARS
                    -----------------------------------------------------------
   TIME STEP LENGTH  86.400      1.4400     2.40000E-02 1.00000E-03 2.73785E-06
 STRESS PERIOD TIME  14170.      236.16      3.9360     0.16400     4.49007E-04
         TOTAL TIME 1.00570E+05  1676.2      27.936      1.1640     3.18686E-03
1
 ------------------------------------------------------------------------------------------------------------
 
 SOLVING FOR TRANSPORT 

          SEQUENTIAL TRANSPORT ITERATION LOOP NUMBER    1
          -----------------------------------------------

 ------------------------------------------------------------------------------------------------------------------------
     1 CALLS TO SPARSE MATRIX SOLVER PACKAGE IN TRANSPORT TIME STEP     164 STRESS PERIOD       2 SPECIES  1

 TOTAL OF       1OUTER ITERATIONS
  MAXIMUM CHANGE FOR EACH ITERATION:
   MAX. CHANGE        NODE  MAX. CHANGE        NODE  MAX. CHANGE        NODE  MAX. CHANGE        NODE  MAX. CHANGE        NODE
 ------------------------------------------------------------------------------------------------------------------------------------
  -0.27157    ,       1520
     TRANSPORT SOLUTION COMPLETE FOR COMPONENT SPECIES NUMBER    1
     ------------------------------------------------------------

 TRANSPORT SOLUTION COMPLETE FOR ALL SPECIES, SORTING OUTPUT FOR CONCENTRATIONS AND MASS BALANCE
 ----------------------------------------------------------------------------------------------------
     TRANSPORT OUTPUT FOR COMPONENT SPECIES NUMBER    1
     ------------------------------------------------------------
 -------------------------------------------------------------------------------------
 
 SOLVING FOR HEAD 

 Outer-Iteration  Inner-Iteration  Backtracking  Number of        Incoming       Outgoing      Cutoff     Maximum Head Change      Maximum Head Change
     Number           Count           Flag       Backtracks       Residual       Residual      Residual            Value               Location
        1                             0             0          0.956370E-02     0.956370E-02   -1.00000    
        1               11                                                                                       0.102930E-03               3152           GWF-node number
        2                             0             0          0.131590E-05     0.131590E-05   -1.00000    
        2                3                                                                                      -0.549343E-06               3007           GWF-node number
     2 CALLS TO SPARSE MATRIX SOLVER PACKAGE  IN FLOW TIME STEP     165 STRESS PERIOD       2

 TOTAL OF       2OUTER ITERATIONS
  MAXIMUM CHANGE FOR EACH ITERATION:
   MAX. CHANGE        NODE  MAX. CHANGE        NODE  MAX. CHANGE        NODE  MAX. CHANGE        NODE  MAX. CHANGE        NODE
 ------------------------------------------------------------------------------------------------------------------------------------
   0.10293E-03,       3152 -0.54934E-06,       3007

 NO OUTPUT CONTROL FOR STRESS PERIOD        2   TIME STEP      165



          TIME SUMMARY AT END OF TIME STEP       165 IN STRESS PERIOD         2
                    SECONDS     MINUTES      HOURS       DAYS        YEARS
                    -----------------------------------------------------------
   TIME STEP LENGTH  86.400      1.4400     2.40000E-02 1.00000E-03 2.73785E-06
 STRESS PERIOD TIME  14256.      237.60      3.9600     0.16500     4.51745E-04
         TOTAL TIME 1.00656E+05  1677.6      27.960      1.1650     3.18960E-03
1
 ------------------------------------------------------------------------------------------------------------
 
 SOLVING FOR TRANSPORT 

          SEQUENTIAL TRANSPORT ITERATION LOOP NUMBER    1
          -----------------------------------------------

 ------------------------------------------------------------------------------------------------------------------------
     1 CALLS TO SPARSE MATRIX SOLVER PACKAGE IN TRANSPORT TIME STEP     165 STRESS PERIOD       2 SPECIES  1

 TOTAL OF       1OUTER ITERATIONS
  MAXIMUM CHANGE FOR EACH ITERATION:
   MAX. CHANGE        NODE  MAX. CHANGE        NODE  MAX. CHANGE        NODE  MAX. CHANGE        NODE  MAX. CHANGE        NODE
 ------------------------------------------------------------------------------------------------------------------------------------
  -0.22625    ,       1440
     TRANSPORT SOLUTION COMPLETE FOR COMPONENT SPECIES NUMBER    1
     ------------------------------------------------------------

 TRANSPORT SOLUTION COMPLETE FOR ALL SPECIES, SORTING OUTPUT FOR CONCENTRATIONS AND MASS BALANCE
 ----------------------------------------------------------------------------------------------------
     TRANSPORT OUTPUT FOR COMPONENT SPECIES NUMBER    1
     ------------------------------------------------------------
 -------------------------------------------------------------------------------------
 
 SOLVING FOR HEAD 

 Outer-Iteration  Inner-Iteration  Backtracking  Number of        Incoming       Outgoing      Cutoff     Maximum Head Change      Maximum Head Change
     Number           Count           Flag       Backtracks       Residual       Residual      Residual            Value               Location
        1                             0             0          0.743693E-02     0.743693E-02   -1.00000    
        1               10                                                                                       0.101225E-03               3153           GWF-node number
        2                             0             0          0.280784E-05     0.280784E-05   -1.00000    
        2                3                                                                                      -0.691677E-06                 38           GWF-node number
     2 CALLS TO SPARSE MATRIX SOLVER PACKAGE  IN FLOW TIME STEP     166 STRESS PERIOD       2

 TOTAL OF       2OUTER ITERATIONS
  MAXIMUM CHANGE FOR EACH ITERATION:
   MAX. CHANGE        NODE  MAX. CHANGE        NODE  MAX. CHANGE        NODE  MAX. CHANGE        NODE  MAX. CHANGE        NODE
 ------------------------------------------------------------------------------------------------------------------------------------
   0.10122E-03,       3153 -0.69168E-06,         38

 NO OUTPUT CONTROL FOR STRESS PERIOD        2   TIME STEP      166



          TIME SUMMARY AT END OF TIME STEP       166 IN STRESS PERIOD         2
                    SECONDS     MINUTES      HOURS       DAYS        YEARS
                    -----------------------------------------------------------
   TIME STEP LENGTH  86.400      1.4400     2.40000E-02 1.00000E-03 2.73785E-06
 STRESS PERIOD TIME  14342.      239.04      3.9840     0.16600     4.54483E-04
         TOTAL TIME 1.00742E+05  1679.0      27.984      1.1660     3.19233E-03
1
 ------------------------------------------------------------------------------------------------------------
 
 SOLVING FOR TRANSPORT 

          SEQUENTIAL TRANSPORT ITERATION LOOP NUMBER    1
          -----------------------------------------------

 ------------------------------------------------------------------------------------------------------------------------
     1 CALLS TO SPARSE MATRIX SOLVER PACKAGE IN TRANSPORT TIME STEP     166 STRESS PERIOD       2 SPECIES  1

 TOTAL OF       1OUTER ITERATIONS
  MAXIMUM CHANGE FOR EACH ITERATION:
   MAX. CHANGE        NODE  MAX. CHANGE        NODE  MAX. CHANGE        NODE  MAX. CHANGE        NODE  MAX. CHANGE        NODE
 ------------------------------------------------------------------------------------------------------------------------------------
  -0.28897    ,       1440
     TRANSPORT SOLUTION COMPLETE FOR COMPONENT SPECIES NUMBER    1
     ------------------------------------------------------------

 TRANSPORT SOLUTION COMPLETE FOR ALL SPECIES, SORTING OUTPUT FOR CONCENTRATIONS AND MASS BALANCE
 ----------------------------------------------------------------------------------------------------
     TRANSPORT OUTPUT FOR COMPONENT SPECIES NUMBER    1
     ------------------------------------------------------------
 -------------------------------------------------------------------------------------
 
 SOLVING FOR HEAD 

 Outer-Iteration  Inner-Iteration  Backtracking  Number of        Incoming       Outgoing      Cutoff     Maximum Head Change      Maximum Head Change
     Number           Count           Flag       Backtracks       Residual       Residual      Residual            Value               Location
        1                             0             0          0.125335E-01     0.125335E-01   -1.00000    
        1               11                                                                                       0.993778E-04               3153           GWF-node number
        2                             0             0          0.122878E-05     0.122878E-05   -1.00000    
        2                1                                                                                       0.880888E-06                167           GWF-node number
     2 CALLS TO SPARSE MATRIX SOLVER PACKAGE  IN FLOW TIME STEP     167 STRESS PERIOD       2

 TOTAL OF       2OUTER ITERATIONS
  MAXIMUM CHANGE FOR EACH ITERATION:
   MAX. CHANGE        NODE  MAX. CHANGE        NODE  MAX. CHANGE        NODE  MAX. CHANGE        NODE  MAX. CHANGE        NODE
 ------------------------------------------------------------------------------------------------------------------------------------
   0.99378E-04,       3153  0.88089E-06,        167

 NO OUTPUT CONTROL FOR STRESS PERIOD        2   TIME STEP      167



          TIME SUMMARY AT END OF TIME STEP       167 IN STRESS PERIOD         2
                    SECONDS     MINUTES      HOURS       DAYS        YEARS
                    -----------------------------------------------------------
   TIME STEP LENGTH  86.400      1.4400     2.40000E-02 1.00000E-03 2.73785E-06
 STRESS PERIOD TIME  14429.      240.48      4.0080     0.16700     4.57221E-04
         TOTAL TIME 1.00829E+05  1680.5      28.008      1.1670     3.19507E-03
1
 ------------------------------------------------------------------------------------------------------------
 
 SOLVING FOR TRANSPORT 

          SEQUENTIAL TRANSPORT ITERATION LOOP NUMBER    1
          -----------------------------------------------

 ------------------------------------------------------------------------------------------------------------------------
     1 CALLS TO SPARSE MATRIX SOLVER PACKAGE IN TRANSPORT TIME STEP     167 STRESS PERIOD       2 SPECIES  1

 TOTAL OF       1OUTER ITERATIONS
  MAXIMUM CHANGE FOR EACH ITERATION:
   MAX. CHANGE        NODE  MAX. CHANGE        NODE  MAX. CHANGE        NODE  MAX. CHANGE        NODE  MAX. CHANGE        NODE
 ------------------------------------------------------------------------------------------------------------------------------------
  -0.36098    ,       1440
     TRANSPORT SOLUTION COMPLETE FOR COMPONENT SPECIES NUMBER    1
     ------------------------------------------------------------

 TRANSPORT SOLUTION COMPLETE FOR ALL SPECIES, SORTING OUTPUT FOR CONCENTRATIONS AND MASS BALANCE
 ----------------------------------------------------------------------------------------------------
     TRANSPORT OUTPUT FOR COMPONENT SPECIES NUMBER    1
     ------------------------------------------------------------
 -------------------------------------------------------------------------------------
 
 SOLVING FOR HEAD 

 Outer-Iteration  Inner-Iteration  Backtracking  Number of        Incoming       Outgoing      Cutoff     Maximum Head Change      Maximum Head Change
     Number           Count           Flag       Backtracks       Residual       Residual      Residual            Value               Location
        1                             0             0          0.242732E-01     0.242732E-01   -1.00000    
        1               12                                                                                       0.972811E-04               3153           GWF-node number
        2                             0             0          0.220410E-06     0.220410E-06   -1.00000    
        2                1                                                                                      -0.916325E-06               3122           GWF-node number
     2 CALLS TO SPARSE MATRIX SOLVER PACKAGE  IN FLOW TIME STEP     168 STRESS PERIOD       2

 TOTAL OF       2OUTER ITERATIONS
  MAXIMUM CHANGE FOR EACH ITERATION:
   MAX. CHANGE        NODE  MAX. CHANGE        NODE  MAX. CHANGE        NODE  MAX. CHANGE        NODE  MAX. CHANGE        NODE
 ------------------------------------------------------------------------------------------------------------------------------------
   0.97281E-04,       3153 -0.91633E-06,       3122

 NO OUTPUT CONTROL FOR STRESS PERIOD        2   TIME STEP      168



          TIME SUMMARY AT END OF TIME STEP       168 IN STRESS PERIOD         2
                    SECONDS     MINUTES      HOURS       DAYS        YEARS
                    -----------------------------------------------------------
   TIME STEP LENGTH  86.400      1.4400     2.40000E-02 1.00000E-03 2.73785E-06
 STRESS PERIOD TIME  14515.      241.92      4.0320     0.16800     4.59959E-04
         TOTAL TIME 1.00915E+05  1681.9      28.032      1.1680     3.19781E-03
1
 ------------------------------------------------------------------------------------------------------------
 
 SOLVING FOR TRANSPORT 

          SEQUENTIAL TRANSPORT ITERATION LOOP NUMBER    1
          -----------------------------------------------

 ------------------------------------------------------------------------------------------------------------------------
     1 CALLS TO SPARSE MATRIX SOLVER PACKAGE IN TRANSPORT TIME STEP     168 STRESS PERIOD       2 SPECIES  1

 TOTAL OF       1OUTER ITERATIONS
  MAXIMUM CHANGE FOR EACH ITERATION:
   MAX. CHANGE        NODE  MAX. CHANGE        NODE  MAX. CHANGE        NODE  MAX. CHANGE        NODE  MAX. CHANGE        NODE
 ------------------------------------------------------------------------------------------------------------------------------------
  -0.22268    ,       1440
     TRANSPORT SOLUTION COMPLETE FOR COMPONENT SPECIES NUMBER    1
     ------------------------------------------------------------

 TRANSPORT SOLUTION COMPLETE FOR ALL SPECIES, SORTING OUTPUT FOR CONCENTRATIONS AND MASS BALANCE
 ----------------------------------------------------------------------------------------------------
     TRANSPORT OUTPUT FOR COMPONENT SPECIES NUMBER    1
     ------------------------------------------------------------
 -------------------------------------------------------------------------------------
 
 SOLVING FOR HEAD 

 Outer-Iteration  Inner-Iteration  Backtracking  Number of        Incoming       Outgoing      Cutoff     Maximum Head Change      Maximum Head Change
     Number           Count           Flag       Backtracks       Residual       Residual      Residual            Value               Location
        1                             0             0          0.986440E-02     0.986440E-02   -1.00000    
        1               11                                                                                       0.990449E-04               3153           GWF-node number
        2                             0             0          0.762258E-06     0.762258E-06   -1.00000    
        2                2                                                                                      -0.594268E-06               2812           GWF-node number
     2 CALLS TO SPARSE MATRIX SOLVER PACKAGE  IN FLOW TIME STEP     169 STRESS PERIOD       2

 TOTAL OF       2OUTER ITERATIONS
  MAXIMUM CHANGE FOR EACH ITERATION:
   MAX. CHANGE        NODE  MAX. CHANGE        NODE  MAX. CHANGE        NODE  MAX. CHANGE        NODE  MAX. CHANGE        NODE
 ------------------------------------------------------------------------------------------------------------------------------------
   0.99045E-04,       3153 -0.59427E-06,       2812

 NO OUTPUT CONTROL FOR STRESS PERIOD        2   TIME STEP      169



          TIME SUMMARY AT END OF TIME STEP       169 IN STRESS PERIOD         2
                    SECONDS     MINUTES      HOURS       DAYS        YEARS
                    -----------------------------------------------------------
   TIME STEP LENGTH  86.400      1.4400     2.40000E-02 1.00000E-03 2.73785E-06
 STRESS PERIOD TIME  14602.      243.36      4.0560     0.16900     4.62697E-04
         TOTAL TIME 1.01002E+05  1683.4      28.056      1.1690     3.20055E-03
1
 ------------------------------------------------------------------------------------------------------------
 
 SOLVING FOR TRANSPORT 

          SEQUENTIAL TRANSPORT ITERATION LOOP NUMBER    1
          -----------------------------------------------

 ------------------------------------------------------------------------------------------------------------------------
     1 CALLS TO SPARSE MATRIX SOLVER PACKAGE IN TRANSPORT TIME STEP     169 STRESS PERIOD       2 SPECIES  1

 TOTAL OF       1OUTER ITERATIONS
  MAXIMUM CHANGE FOR EACH ITERATION:
   MAX. CHANGE        NODE  MAX. CHANGE        NODE  MAX. CHANGE        NODE  MAX. CHANGE        NODE  MAX. CHANGE        NODE
 ------------------------------------------------------------------------------------------------------------------------------------
  -0.17475    ,       3153
     TRANSPORT SOLUTION COMPLETE FOR COMPONENT SPECIES NUMBER    1
     ------------------------------------------------------------

 TRANSPORT SOLUTION COMPLETE FOR ALL SPECIES, SORTING OUTPUT FOR CONCENTRATIONS AND MASS BALANCE
 ----------------------------------------------------------------------------------------------------
     TRANSPORT OUTPUT FOR COMPONENT SPECIES NUMBER    1
     ------------------------------------------------------------
 -------------------------------------------------------------------------------------
 
 SOLVING FOR HEAD 

 Outer-Iteration  Inner-Iteration  Backtracking  Number of        Incoming       Outgoing      Cutoff     Maximum Head Change      Maximum Head Change
     Number           Count           Flag       Backtracks       Residual       Residual      Residual            Value               Location
        1                             0             0          0.746868E-02     0.746868E-02   -1.00000    
        1               11                                                                                       0.981386E-04               3153           GWF-node number
        2                             0             0          0.117250E-05     0.117250E-05   -1.00000    
        2                3                                                                                      -0.722699E-06               3083           GWF-node number
     2 CALLS TO SPARSE MATRIX SOLVER PACKAGE  IN FLOW TIME STEP     170 STRESS PERIOD       2

 TOTAL OF       2OUTER ITERATIONS
  MAXIMUM CHANGE FOR EACH ITERATION:
   MAX. CHANGE        NODE  MAX. CHANGE        NODE  MAX. CHANGE        NODE  MAX. CHANGE        NODE  MAX. CHANGE        NODE
 ------------------------------------------------------------------------------------------------------------------------------------
   0.98139E-04,       3153 -0.72270E-06,       3083

 NO OUTPUT CONTROL FOR STRESS PERIOD        2   TIME STEP      170



          TIME SUMMARY AT END OF TIME STEP       170 IN STRESS PERIOD         2
                    SECONDS     MINUTES      HOURS       DAYS        YEARS
                    -----------------------------------------------------------
   TIME STEP LENGTH  86.400      1.4400     2.40000E-02 1.00000E-03 2.73785E-06
 STRESS PERIOD TIME  14688.      244.80      4.0800     0.17000     4.65435E-04
         TOTAL TIME 1.01088E+05  1684.8      28.080      1.1700     3.20329E-03
1
 ------------------------------------------------------------------------------------------------------------
 
 SOLVING FOR TRANSPORT 

          SEQUENTIAL TRANSPORT ITERATION LOOP NUMBER    1
          -----------------------------------------------

 ------------------------------------------------------------------------------------------------------------------------
     1 CALLS TO SPARSE MATRIX SOLVER PACKAGE IN TRANSPORT TIME STEP     170 STRESS PERIOD       2 SPECIES  1

 TOTAL OF       1OUTER ITERATIONS
  MAXIMUM CHANGE FOR EACH ITERATION:
   MAX. CHANGE        NODE  MAX. CHANGE        NODE  MAX. CHANGE        NODE  MAX. CHANGE        NODE  MAX. CHANGE        NODE
 ------------------------------------------------------------------------------------------------------------------------------------
  -0.18883    ,       1360
     TRANSPORT SOLUTION COMPLETE FOR COMPONENT SPECIES NUMBER    1
     ------------------------------------------------------------

 TRANSPORT SOLUTION COMPLETE FOR ALL SPECIES, SORTING OUTPUT FOR CONCENTRATIONS AND MASS BALANCE
 ----------------------------------------------------------------------------------------------------
     TRANSPORT OUTPUT FOR COMPONENT SPECIES NUMBER    1
     ------------------------------------------------------------
 -------------------------------------------------------------------------------------
 
 SOLVING FOR HEAD 

 Outer-Iteration  Inner-Iteration  Backtracking  Number of        Incoming       Outgoing      Cutoff     Maximum Head Change      Maximum Head Change
     Number           Count           Flag       Backtracks       Residual       Residual      Residual            Value               Location
        1                             0             0          0.988958E-02     0.988958E-02   -1.00000    
        1               13                                                                                       0.972719E-04               3153           GWF-node number
        2                             0             0          0.176734E-06     0.176734E-06   -1.00000    
        2                1                                                                                      -0.246559E-06               3080           GWF-node number
     2 CALLS TO SPARSE MATRIX SOLVER PACKAGE  IN FLOW TIME STEP     171 STRESS PERIOD       2

 TOTAL OF       2OUTER ITERATIONS
  MAXIMUM CHANGE FOR EACH ITERATION:
   MAX. CHANGE        NODE  MAX. CHANGE        NODE  MAX. CHANGE        NODE  MAX. CHANGE        NODE  MAX. CHANGE        NODE
 ------------------------------------------------------------------------------------------------------------------------------------
   0.97272E-04,       3153 -0.24656E-06,       3080

 NO OUTPUT CONTROL FOR STRESS PERIOD        2   TIME STEP      171



          TIME SUMMARY AT END OF TIME STEP       171 IN STRESS PERIOD         2
                    SECONDS     MINUTES      HOURS       DAYS        YEARS
                    -----------------------------------------------------------
   TIME STEP LENGTH  86.400      1.4400     2.40000E-02 1.00000E-03 2.73785E-06
 STRESS PERIOD TIME  14774.      246.24      4.1040     0.17100     4.68172E-04
         TOTAL TIME 1.01174E+05  1686.2      28.104      1.1710     3.20602E-03
1
 ------------------------------------------------------------------------------------------------------------
 
 SOLVING FOR TRANSPORT 

          SEQUENTIAL TRANSPORT ITERATION LOOP NUMBER    1
          -----------------------------------------------

 ------------------------------------------------------------------------------------------------------------------------
     1 CALLS TO SPARSE MATRIX SOLVER PACKAGE IN TRANSPORT TIME STEP     171 STRESS PERIOD       2 SPECIES  1

 TOTAL OF       1OUTER ITERATIONS
  MAXIMUM CHANGE FOR EACH ITERATION:
   MAX. CHANGE        NODE  MAX. CHANGE        NODE  MAX. CHANGE        NODE  MAX. CHANGE        NODE  MAX. CHANGE        NODE
 ------------------------------------------------------------------------------------------------------------------------------------
  -0.26724    ,       1360
     TRANSPORT SOLUTION COMPLETE FOR COMPONENT SPECIES NUMBER    1
     ------------------------------------------------------------

 TRANSPORT SOLUTION COMPLETE FOR ALL SPECIES, SORTING OUTPUT FOR CONCENTRATIONS AND MASS BALANCE
 ----------------------------------------------------------------------------------------------------
     TRANSPORT OUTPUT FOR COMPONENT SPECIES NUMBER    1
     ------------------------------------------------------------
 -------------------------------------------------------------------------------------
 
 SOLVING FOR HEAD 

 Outer-Iteration  Inner-Iteration  Backtracking  Number of        Incoming       Outgoing      Cutoff     Maximum Head Change      Maximum Head Change
     Number           Count           Flag       Backtracks       Residual       Residual      Residual            Value               Location
        1                             0             0          0.208924E-01     0.208924E-01   -1.00000    
        1               12                                                                                       0.946847E-04               3153           GWF-node number
        2                             0             0          0.137927E-06     0.137927E-06   -1.00000    
        2                1                                                                                       0.400585E-06               3145           GWF-node number
     2 CALLS TO SPARSE MATRIX SOLVER PACKAGE  IN FLOW TIME STEP     172 STRESS PERIOD       2

 TOTAL OF       2OUTER ITERATIONS
  MAXIMUM CHANGE FOR EACH ITERATION:
   MAX. CHANGE        NODE  MAX. CHANGE        NODE  MAX. CHANGE        NODE  MAX. CHANGE        NODE  MAX. CHANGE        NODE
 ------------------------------------------------------------------------------------------------------------------------------------
   0.94685E-04,       3153  0.40059E-06,       3145

 NO OUTPUT CONTROL FOR STRESS PERIOD        2   TIME STEP      172



          TIME SUMMARY AT END OF TIME STEP       172 IN STRESS PERIOD         2
                    SECONDS     MINUTES      HOURS       DAYS        YEARS
                    -----------------------------------------------------------
   TIME STEP LENGTH  86.400      1.4400     2.40000E-02 1.00000E-03 2.73785E-06
 STRESS PERIOD TIME  14861.      247.68      4.1280     0.17200     4.70910E-04
         TOTAL TIME 1.01261E+05  1687.7      28.128      1.1720     3.20876E-03
1
 ------------------------------------------------------------------------------------------------------------
 
 SOLVING FOR TRANSPORT 

          SEQUENTIAL TRANSPORT ITERATION LOOP NUMBER    1
          -----------------------------------------------

 ------------------------------------------------------------------------------------------------------------------------
     1 CALLS TO SPARSE MATRIX SOLVER PACKAGE IN TRANSPORT TIME STEP     172 STRESS PERIOD       2 SPECIES  1

 TOTAL OF       1OUTER ITERATIONS
  MAXIMUM CHANGE FOR EACH ITERATION:
   MAX. CHANGE        NODE  MAX. CHANGE        NODE  MAX. CHANGE        NODE  MAX. CHANGE        NODE  MAX. CHANGE        NODE
 ------------------------------------------------------------------------------------------------------------------------------------
  -0.42406    ,       1360
     TRANSPORT SOLUTION COMPLETE FOR COMPONENT SPECIES NUMBER    1
     ------------------------------------------------------------

 TRANSPORT SOLUTION COMPLETE FOR ALL SPECIES, SORTING OUTPUT FOR CONCENTRATIONS AND MASS BALANCE
 ----------------------------------------------------------------------------------------------------
     TRANSPORT OUTPUT FOR COMPONENT SPECIES NUMBER    1
     ------------------------------------------------------------
 -------------------------------------------------------------------------------------
 
 SOLVING FOR HEAD 

 Outer-Iteration  Inner-Iteration  Backtracking  Number of        Incoming       Outgoing      Cutoff     Maximum Head Change      Maximum Head Change
     Number           Count           Flag       Backtracks       Residual       Residual      Residual            Value               Location
        1                             0             0          0.593563E-01     0.593563E-01   -1.00000    
        1               14                                                                                       0.912459E-04               3153           GWF-node number
        2                             0             0          0.487505E-07     0.487505E-07   -1.00000    
        2                1                                                                                      -0.225152E-06               3161           GWF-node number
     2 CALLS TO SPARSE MATRIX SOLVER PACKAGE  IN FLOW TIME STEP     173 STRESS PERIOD       2

 TOTAL OF       2OUTER ITERATIONS
  MAXIMUM CHANGE FOR EACH ITERATION:
   MAX. CHANGE        NODE  MAX. CHANGE        NODE  MAX. CHANGE        NODE  MAX. CHANGE        NODE  MAX. CHANGE        NODE
 ------------------------------------------------------------------------------------------------------------------------------------
   0.91246E-04,       3153 -0.22515E-06,       3161

 NO OUTPUT CONTROL FOR STRESS PERIOD        2   TIME STEP      173



          TIME SUMMARY AT END OF TIME STEP       173 IN STRESS PERIOD         2
                    SECONDS     MINUTES      HOURS       DAYS        YEARS
                    -----------------------------------------------------------
   TIME STEP LENGTH  86.400      1.4400     2.40000E-02 1.00000E-03 2.73785E-06
 STRESS PERIOD TIME  14947.      249.12      4.1520     0.17300     4.73648E-04
         TOTAL TIME 1.01347E+05  1689.1      28.152      1.1730     3.21150E-03
1
 ------------------------------------------------------------------------------------------------------------
 
 SOLVING FOR TRANSPORT 

          SEQUENTIAL TRANSPORT ITERATION LOOP NUMBER    1
          -----------------------------------------------

 ------------------------------------------------------------------------------------------------------------------------
     1 CALLS TO SPARSE MATRIX SOLVER PACKAGE IN TRANSPORT TIME STEP     173 STRESS PERIOD       2 SPECIES  1

 TOTAL OF       1OUTER ITERATIONS
  MAXIMUM CHANGE FOR EACH ITERATION:
   MAX. CHANGE        NODE  MAX. CHANGE        NODE  MAX. CHANGE        NODE  MAX. CHANGE        NODE  MAX. CHANGE        NODE
 ------------------------------------------------------------------------------------------------------------------------------------
  -0.21460    ,       1360
     TRANSPORT SOLUTION COMPLETE FOR COMPONENT SPECIES NUMBER    1
     ------------------------------------------------------------

 TRANSPORT SOLUTION COMPLETE FOR ALL SPECIES, SORTING OUTPUT FOR CONCENTRATIONS AND MASS BALANCE
 ----------------------------------------------------------------------------------------------------
     TRANSPORT OUTPUT FOR COMPONENT SPECIES NUMBER    1
     ------------------------------------------------------------
 -------------------------------------------------------------------------------------
 
 SOLVING FOR HEAD 

 Outer-Iteration  Inner-Iteration  Backtracking  Number of        Incoming       Outgoing      Cutoff     Maximum Head Change      Maximum Head Change
     Number           Count           Flag       Backtracks       Residual       Residual      Residual            Value               Location
        1                             0             0          0.196360E-01     0.196360E-01   -1.00000    
        1                9                                                                                       0.940690E-04               3153           GWF-node number
        2                             0             0          0.245627E-04     0.245627E-04   -1.00000    
        2                4                                                                                      -0.257341E-05               2971           GWF-node number
     2 CALLS TO SPARSE MATRIX SOLVER PACKAGE  IN FLOW TIME STEP     174 STRESS PERIOD       2

 TOTAL OF       2OUTER ITERATIONS
  MAXIMUM CHANGE FOR EACH ITERATION:
   MAX. CHANGE        NODE  MAX. CHANGE        NODE  MAX. CHANGE        NODE  MAX. CHANGE        NODE  MAX. CHANGE        NODE
 ------------------------------------------------------------------------------------------------------------------------------------
   0.94069E-04,       3153 -0.25734E-05,       2971

 NO OUTPUT CONTROL FOR STRESS PERIOD        2   TIME STEP      174



          TIME SUMMARY AT END OF TIME STEP       174 IN STRESS PERIOD         2
                    SECONDS     MINUTES      HOURS       DAYS        YEARS
                    -----------------------------------------------------------
   TIME STEP LENGTH  86.400      1.4400     2.40000E-02 1.00000E-03 2.73785E-06
 STRESS PERIOD TIME  15034.      250.56      4.1760     0.17400     4.76386E-04
         TOTAL TIME 1.01434E+05  1690.6      28.176      1.1740     3.21424E-03
1
 ------------------------------------------------------------------------------------------------------------
 
 SOLVING FOR TRANSPORT 

          SEQUENTIAL TRANSPORT ITERATION LOOP NUMBER    1
          -----------------------------------------------

 ------------------------------------------------------------------------------------------------------------------------
     1 CALLS TO SPARSE MATRIX SOLVER PACKAGE IN TRANSPORT TIME STEP     174 STRESS PERIOD       2 SPECIES  1

 TOTAL OF       1OUTER ITERATIONS
  MAXIMUM CHANGE FOR EACH ITERATION:
   MAX. CHANGE        NODE  MAX. CHANGE        NODE  MAX. CHANGE        NODE  MAX. CHANGE        NODE  MAX. CHANGE        NODE
 ------------------------------------------------------------------------------------------------------------------------------------
   0.16705    ,       1680
     TRANSPORT SOLUTION COMPLETE FOR COMPONENT SPECIES NUMBER    1
     ------------------------------------------------------------

 TRANSPORT SOLUTION COMPLETE FOR ALL SPECIES, SORTING OUTPUT FOR CONCENTRATIONS AND MASS BALANCE
 ----------------------------------------------------------------------------------------------------
     TRANSPORT OUTPUT FOR COMPONENT SPECIES NUMBER    1
     ------------------------------------------------------------
 -------------------------------------------------------------------------------------
 
 SOLVING FOR HEAD 

 Outer-Iteration  Inner-Iteration  Backtracking  Number of        Incoming       Outgoing      Cutoff     Maximum Head Change      Maximum Head Change
     Number           Count           Flag       Backtracks       Residual       Residual      Residual            Value               Location
        1                             0             0          0.548751E-02     0.548751E-02   -1.00000    
        1               11                                                                                       0.947021E-04               3154           GWF-node number
        2                             0             0          0.869506E-06     0.869506E-06   -1.00000    
        2                2                                                                                      -0.151911E-05               3050           GWF-node number
     2 CALLS TO SPARSE MATRIX SOLVER PACKAGE  IN FLOW TIME STEP     175 STRESS PERIOD       2

 TOTAL OF       2OUTER ITERATIONS
  MAXIMUM CHANGE FOR EACH ITERATION:
   MAX. CHANGE        NODE  MAX. CHANGE        NODE  MAX. CHANGE        NODE  MAX. CHANGE        NODE  MAX. CHANGE        NODE
 ------------------------------------------------------------------------------------------------------------------------------------
   0.94702E-04,       3154 -0.15191E-05,       3050

 NO OUTPUT CONTROL FOR STRESS PERIOD        2   TIME STEP      175



          TIME SUMMARY AT END OF TIME STEP       175 IN STRESS PERIOD         2
                    SECONDS     MINUTES      HOURS       DAYS        YEARS
                    -----------------------------------------------------------
   TIME STEP LENGTH  86.400      1.4400     2.40000E-02 1.00000E-03 2.73785E-06
 STRESS PERIOD TIME  15120.      252.00      4.2000     0.17500     4.79124E-04
         TOTAL TIME 1.01520E+05  1692.0      28.200      1.1750     3.21697E-03
1
 ------------------------------------------------------------------------------------------------------------
 
 SOLVING FOR TRANSPORT 

          SEQUENTIAL TRANSPORT ITERATION LOOP NUMBER    1
          -----------------------------------------------

 ------------------------------------------------------------------------------------------------------------------------
     1 CALLS TO SPARSE MATRIX SOLVER PACKAGE IN TRANSPORT TIME STEP     175 STRESS PERIOD       2 SPECIES  1

 TOTAL OF       1OUTER ITERATIONS
  MAXIMUM CHANGE FOR EACH ITERATION:
   MAX. CHANGE        NODE  MAX. CHANGE        NODE  MAX. CHANGE        NODE  MAX. CHANGE        NODE  MAX. CHANGE        NODE
 ------------------------------------------------------------------------------------------------------------------------------------
  -0.15737    ,       3154
     TRANSPORT SOLUTION COMPLETE FOR COMPONENT SPECIES NUMBER    1
     ------------------------------------------------------------

 TRANSPORT SOLUTION COMPLETE FOR ALL SPECIES, SORTING OUTPUT FOR CONCENTRATIONS AND MASS BALANCE
 ----------------------------------------------------------------------------------------------------
     TRANSPORT OUTPUT FOR COMPONENT SPECIES NUMBER    1
     ------------------------------------------------------------
 -------------------------------------------------------------------------------------
 
 SOLVING FOR HEAD 

 Outer-Iteration  Inner-Iteration  Backtracking  Number of        Incoming       Outgoing      Cutoff     Maximum Head Change      Maximum Head Change
     Number           Count           Flag       Backtracks       Residual       Residual      Residual            Value               Location
        1                             0             0          0.328851E-02     0.328851E-02   -1.00000    
        1               11                                                                                       0.946138E-04               3154           GWF-node number
        2                             0             0          0.366794E-06     0.366794E-06   -1.00000    
        2                1                                                                                      -0.871820E-06               2242           GWF-node number
     2 CALLS TO SPARSE MATRIX SOLVER PACKAGE  IN FLOW TIME STEP     176 STRESS PERIOD       2

 TOTAL OF       2OUTER ITERATIONS
  MAXIMUM CHANGE FOR EACH ITERATION:
   MAX. CHANGE        NODE  MAX. CHANGE        NODE  MAX. CHANGE        NODE  MAX. CHANGE        NODE  MAX. CHANGE        NODE
 ------------------------------------------------------------------------------------------------------------------------------------
   0.94614E-04,       3154 -0.87182E-06,       2242

 NO OUTPUT CONTROL FOR STRESS PERIOD        2   TIME STEP      176



          TIME SUMMARY AT END OF TIME STEP       176 IN STRESS PERIOD         2
                    SECONDS     MINUTES      HOURS       DAYS        YEARS
                    -----------------------------------------------------------
   TIME STEP LENGTH  86.400      1.4400     2.40000E-02 1.00000E-03 2.73785E-06
 STRESS PERIOD TIME  15206.      253.44      4.2240     0.17600     4.81862E-04
         TOTAL TIME 1.01606E+05  1693.4      28.224      1.1760     3.21971E-03
1
 ------------------------------------------------------------------------------------------------------------
 
 SOLVING FOR TRANSPORT 

          SEQUENTIAL TRANSPORT ITERATION LOOP NUMBER    1
          -----------------------------------------------

 ------------------------------------------------------------------------------------------------------------------------
     1 CALLS TO SPARSE MATRIX SOLVER PACKAGE IN TRANSPORT TIME STEP     176 STRESS PERIOD       2 SPECIES  1

 TOTAL OF       1OUTER ITERATIONS
  MAXIMUM CHANGE FOR EACH ITERATION:
   MAX. CHANGE        NODE  MAX. CHANGE        NODE  MAX. CHANGE        NODE  MAX. CHANGE        NODE  MAX. CHANGE        NODE
 ------------------------------------------------------------------------------------------------------------------------------------
   0.18264    ,       1600
     TRANSPORT SOLUTION COMPLETE FOR COMPONENT SPECIES NUMBER    1
     ------------------------------------------------------------

 TRANSPORT SOLUTION COMPLETE FOR ALL SPECIES, SORTING OUTPUT FOR CONCENTRATIONS AND MASS BALANCE
 ----------------------------------------------------------------------------------------------------
     TRANSPORT OUTPUT FOR COMPONENT SPECIES NUMBER    1
     ------------------------------------------------------------
 -------------------------------------------------------------------------------------
 
 SOLVING FOR HEAD 

 Outer-Iteration  Inner-Iteration  Backtracking  Number of        Incoming       Outgoing      Cutoff     Maximum Head Change      Maximum Head Change
     Number           Count           Flag       Backtracks       Residual       Residual      Residual            Value               Location
        1                             0             0          0.407038E-02     0.407038E-02   -1.00000    
        1               11                                                                                       0.938700E-04               3154           GWF-node number
        2                             0             0          0.446887E-06     0.446887E-06   -1.00000    
        2                1                                                                                       0.294248E-06               1711           GWF-node number
     2 CALLS TO SPARSE MATRIX SOLVER PACKAGE  IN FLOW TIME STEP     177 STRESS PERIOD       2

 TOTAL OF       2OUTER ITERATIONS
  MAXIMUM CHANGE FOR EACH ITERATION:
   MAX. CHANGE        NODE  MAX. CHANGE        NODE  MAX. CHANGE        NODE  MAX. CHANGE        NODE  MAX. CHANGE        NODE
 ------------------------------------------------------------------------------------------------------------------------------------
   0.93870E-04,       3154  0.29425E-06,       1711

 NO OUTPUT CONTROL FOR STRESS PERIOD        2   TIME STEP      177



          TIME SUMMARY AT END OF TIME STEP       177 IN STRESS PERIOD         2
                    SECONDS     MINUTES      HOURS       DAYS        YEARS
                    -----------------------------------------------------------
   TIME STEP LENGTH  86.400      1.4400     2.40000E-02 1.00000E-03 2.73785E-06
 STRESS PERIOD TIME  15293.      254.88      4.2480     0.17700     4.84600E-04
         TOTAL TIME 1.01693E+05  1694.9      28.248      1.1770     3.22245E-03
1
 ------------------------------------------------------------------------------------------------------------
 
 SOLVING FOR TRANSPORT 

          SEQUENTIAL TRANSPORT ITERATION LOOP NUMBER    1
          -----------------------------------------------

 ------------------------------------------------------------------------------------------------------------------------
     1 CALLS TO SPARSE MATRIX SOLVER PACKAGE IN TRANSPORT TIME STEP     177 STRESS PERIOD       2 SPECIES  1

 TOTAL OF       1OUTER ITERATIONS
  MAXIMUM CHANGE FOR EACH ITERATION:
   MAX. CHANGE        NODE  MAX. CHANGE        NODE  MAX. CHANGE        NODE  MAX. CHANGE        NODE  MAX. CHANGE        NODE
 ------------------------------------------------------------------------------------------------------------------------------------
   0.17937    ,       1600
     TRANSPORT SOLUTION COMPLETE FOR COMPONENT SPECIES NUMBER    1
     ------------------------------------------------------------

 TRANSPORT SOLUTION COMPLETE FOR ALL SPECIES, SORTING OUTPUT FOR CONCENTRATIONS AND MASS BALANCE
 ----------------------------------------------------------------------------------------------------
     TRANSPORT OUTPUT FOR COMPONENT SPECIES NUMBER    1
     ------------------------------------------------------------
 -------------------------------------------------------------------------------------
 
 SOLVING FOR HEAD 

 Outer-Iteration  Inner-Iteration  Backtracking  Number of        Incoming       Outgoing      Cutoff     Maximum Head Change      Maximum Head Change
     Number           Count           Flag       Backtracks       Residual       Residual      Residual            Value               Location
        1                             0             0          0.588263E-02     0.588263E-02   -1.00000    
        1               12                                                                                       0.929727E-04               3154           GWF-node number
        2                             0             0          0.320585E-06     0.320585E-06   -1.00000    
        2                1                                                                                       0.480944E-06               3066           GWF-node number
     2 CALLS TO SPARSE MATRIX SOLVER PACKAGE  IN FLOW TIME STEP     178 STRESS PERIOD       2

 TOTAL OF       2OUTER ITERATIONS
  MAXIMUM CHANGE FOR EACH ITERATION:
   MAX. CHANGE        NODE  MAX. CHANGE        NODE  MAX. CHANGE        NODE  MAX. CHANGE        NODE  MAX. CHANGE        NODE
 ------------------------------------------------------------------------------------------------------------------------------------
   0.92973E-04,       3154  0.48094E-06,       3066

 NO OUTPUT CONTROL FOR STRESS PERIOD        2   TIME STEP      178



          TIME SUMMARY AT END OF TIME STEP       178 IN STRESS PERIOD         2
                    SECONDS     MINUTES      HOURS       DAYS        YEARS
                    -----------------------------------------------------------
   TIME STEP LENGTH  86.400      1.4400     2.40000E-02 1.00000E-03 2.73785E-06
 STRESS PERIOD TIME  15379.      256.32      4.2720     0.17800     4.87338E-04
         TOTAL TIME 1.01779E+05  1696.3      28.272      1.1780     3.22519E-03
1
 ------------------------------------------------------------------------------------------------------------
 
 SOLVING FOR TRANSPORT 

          SEQUENTIAL TRANSPORT ITERATION LOOP NUMBER    1
          -----------------------------------------------

 ------------------------------------------------------------------------------------------------------------------------
     1 CALLS TO SPARSE MATRIX SOLVER PACKAGE IN TRANSPORT TIME STEP     178 STRESS PERIOD       2 SPECIES  1

 TOTAL OF       1OUTER ITERATIONS
  MAXIMUM CHANGE FOR EACH ITERATION:
   MAX. CHANGE        NODE  MAX. CHANGE        NODE  MAX. CHANGE        NODE  MAX. CHANGE        NODE  MAX. CHANGE        NODE
 ------------------------------------------------------------------------------------------------------------------------------------
   0.15893    ,       1520
     TRANSPORT SOLUTION COMPLETE FOR COMPONENT SPECIES NUMBER    1
     ------------------------------------------------------------

 TRANSPORT SOLUTION COMPLETE FOR ALL SPECIES, SORTING OUTPUT FOR CONCENTRATIONS AND MASS BALANCE
 ----------------------------------------------------------------------------------------------------
     TRANSPORT OUTPUT FOR COMPONENT SPECIES NUMBER    1
     ------------------------------------------------------------
 -------------------------------------------------------------------------------------
 
 SOLVING FOR HEAD 

 Outer-Iteration  Inner-Iteration  Backtracking  Number of        Incoming       Outgoing      Cutoff     Maximum Head Change      Maximum Head Change
     Number           Count           Flag       Backtracks       Residual       Residual      Residual            Value               Location
        1                             0             0          0.804093E-02     0.804093E-02   -1.00000    
        1               12                                                                                       0.914294E-04               3154           GWF-node number
        2                             0             0          0.117632E-06     0.117632E-06   -1.00000    
        2                1                                                                                      -0.221489E-06               2380           GWF-node number
     2 CALLS TO SPARSE MATRIX SOLVER PACKAGE  IN FLOW TIME STEP     179 STRESS PERIOD       2

 TOTAL OF       2OUTER ITERATIONS
  MAXIMUM CHANGE FOR EACH ITERATION:
   MAX. CHANGE        NODE  MAX. CHANGE        NODE  MAX. CHANGE        NODE  MAX. CHANGE        NODE  MAX. CHANGE        NODE
 ------------------------------------------------------------------------------------------------------------------------------------
   0.91429E-04,       3154 -0.22149E-06,       2380

 NO OUTPUT CONTROL FOR STRESS PERIOD        2   TIME STEP      179



          TIME SUMMARY AT END OF TIME STEP       179 IN STRESS PERIOD         2
                    SECONDS     MINUTES      HOURS       DAYS        YEARS
                    -----------------------------------------------------------
   TIME STEP LENGTH  86.400      1.4400     2.40000E-02 1.00000E-03 2.73785E-06
 STRESS PERIOD TIME  15466.      257.76      4.2960     0.17900     4.90075E-04
         TOTAL TIME 1.01866E+05  1697.8      28.296      1.1790     3.22793E-03
1
 ------------------------------------------------------------------------------------------------------------
 
 SOLVING FOR TRANSPORT 

          SEQUENTIAL TRANSPORT ITERATION LOOP NUMBER    1
          -----------------------------------------------

 ------------------------------------------------------------------------------------------------------------------------
     1 CALLS TO SPARSE MATRIX SOLVER PACKAGE IN TRANSPORT TIME STEP     179 STRESS PERIOD       2 SPECIES  1

 TOTAL OF       1OUTER ITERATIONS
  MAXIMUM CHANGE FOR EACH ITERATION:
   MAX. CHANGE        NODE  MAX. CHANGE        NODE  MAX. CHANGE        NODE  MAX. CHANGE        NODE  MAX. CHANGE        NODE
 ------------------------------------------------------------------------------------------------------------------------------------
  -0.14535    ,       3154
     TRANSPORT SOLUTION COMPLETE FOR COMPONENT SPECIES NUMBER    1
     ------------------------------------------------------------

 TRANSPORT SOLUTION COMPLETE FOR ALL SPECIES, SORTING OUTPUT FOR CONCENTRATIONS AND MASS BALANCE
 ----------------------------------------------------------------------------------------------------
     TRANSPORT OUTPUT FOR COMPONENT SPECIES NUMBER    1
     ------------------------------------------------------------
 -------------------------------------------------------------------------------------
 
 SOLVING FOR HEAD 

 Outer-Iteration  Inner-Iteration  Backtracking  Number of        Incoming       Outgoing      Cutoff     Maximum Head Change      Maximum Head Change
     Number           Count           Flag       Backtracks       Residual       Residual      Residual            Value               Location
        1                             0             0          0.104035E-01     0.104035E-01   -1.00000    
        1               12                                                                                       0.887107E-04               3154           GWF-node number
        2                             0             0          0.601668E-06     0.601668E-06   -1.00000    
        2                1                                                                                      -0.474543E-06               3055           GWF-node number
     2 CALLS TO SPARSE MATRIX SOLVER PACKAGE  IN FLOW TIME STEP     180 STRESS PERIOD       2

 TOTAL OF       2OUTER ITERATIONS
  MAXIMUM CHANGE FOR EACH ITERATION:
   MAX. CHANGE        NODE  MAX. CHANGE        NODE  MAX. CHANGE        NODE  MAX. CHANGE        NODE  MAX. CHANGE        NODE
 ------------------------------------------------------------------------------------------------------------------------------------
   0.88711E-04,       3154 -0.47454E-06,       3055

 NO OUTPUT CONTROL FOR STRESS PERIOD        2   TIME STEP      180



          TIME SUMMARY AT END OF TIME STEP       180 IN STRESS PERIOD         2
                    SECONDS     MINUTES      HOURS       DAYS        YEARS
                    -----------------------------------------------------------
   TIME STEP LENGTH  86.400      1.4400     2.40000E-02 1.00000E-03 2.73785E-06
 STRESS PERIOD TIME  15552.      259.20      4.3200     0.18000     4.92813E-04
         TOTAL TIME 1.01952E+05  1699.2      28.320      1.1800     3.23066E-03
1
 ------------------------------------------------------------------------------------------------------------
 
 SOLVING FOR TRANSPORT 

          SEQUENTIAL TRANSPORT ITERATION LOOP NUMBER    1
          -----------------------------------------------

 ------------------------------------------------------------------------------------------------------------------------
     1 CALLS TO SPARSE MATRIX SOLVER PACKAGE IN TRANSPORT TIME STEP     180 STRESS PERIOD       2 SPECIES  1

 TOTAL OF       1OUTER ITERATIONS
  MAXIMUM CHANGE FOR EACH ITERATION:
   MAX. CHANGE        NODE  MAX. CHANGE        NODE  MAX. CHANGE        NODE  MAX. CHANGE        NODE  MAX. CHANGE        NODE
 ------------------------------------------------------------------------------------------------------------------------------------
  -0.14230    ,       3154
     TRANSPORT SOLUTION COMPLETE FOR COMPONENT SPECIES NUMBER    1
     ------------------------------------------------------------

 TRANSPORT SOLUTION COMPLETE FOR ALL SPECIES, SORTING OUTPUT FOR CONCENTRATIONS AND MASS BALANCE
 ----------------------------------------------------------------------------------------------------
     TRANSPORT OUTPUT FOR COMPONENT SPECIES NUMBER    1
     ------------------------------------------------------------
 -------------------------------------------------------------------------------------
 
 SOLVING FOR HEAD 

 Outer-Iteration  Inner-Iteration  Backtracking  Number of        Incoming       Outgoing      Cutoff     Maximum Head Change      Maximum Head Change
     Number           Count           Flag       Backtracks       Residual       Residual      Residual            Value               Location
        1                             0             0          0.128013E-01     0.128013E-01   -1.00000    
        1               12                                                                                       0.851989E-04               3154           GWF-node number
        2                             0             0          0.221497E-06     0.221497E-06   -1.00000    
        2                1                                                                                       0.545300E-06               3069           GWF-node number
     2 CALLS TO SPARSE MATRIX SOLVER PACKAGE  IN FLOW TIME STEP     181 STRESS PERIOD       2

 TOTAL OF       2OUTER ITERATIONS
  MAXIMUM CHANGE FOR EACH ITERATION:
   MAX. CHANGE        NODE  MAX. CHANGE        NODE  MAX. CHANGE        NODE  MAX. CHANGE        NODE  MAX. CHANGE        NODE
 ------------------------------------------------------------------------------------------------------------------------------------
   0.85199E-04,       3154  0.54530E-06,       3069

 NO OUTPUT CONTROL FOR STRESS PERIOD        2   TIME STEP      181



          TIME SUMMARY AT END OF TIME STEP       181 IN STRESS PERIOD         2
                    SECONDS     MINUTES      HOURS       DAYS        YEARS
                    -----------------------------------------------------------
   TIME STEP LENGTH  86.400      1.4400     2.40000E-02 1.00000E-03 2.73785E-06
 STRESS PERIOD TIME  15638.      260.64      4.3440     0.18100     4.95551E-04
         TOTAL TIME 1.02038E+05  1700.6      28.344      1.1810     3.23340E-03
1
 ------------------------------------------------------------------------------------------------------------
 
 SOLVING FOR TRANSPORT 

          SEQUENTIAL TRANSPORT ITERATION LOOP NUMBER    1
          -----------------------------------------------

 ------------------------------------------------------------------------------------------------------------------------
     1 CALLS TO SPARSE MATRIX SOLVER PACKAGE IN TRANSPORT TIME STEP     181 STRESS PERIOD       2 SPECIES  1

 TOTAL OF       1OUTER ITERATIONS
  MAXIMUM CHANGE FOR EACH ITERATION:
   MAX. CHANGE        NODE  MAX. CHANGE        NODE  MAX. CHANGE        NODE  MAX. CHANGE        NODE  MAX. CHANGE        NODE
 ------------------------------------------------------------------------------------------------------------------------------------
   0.14847    ,       1520
     TRANSPORT SOLUTION COMPLETE FOR COMPONENT SPECIES NUMBER    1
     ------------------------------------------------------------

 TRANSPORT SOLUTION COMPLETE FOR ALL SPECIES, SORTING OUTPUT FOR CONCENTRATIONS AND MASS BALANCE
 ----------------------------------------------------------------------------------------------------
     TRANSPORT OUTPUT FOR COMPONENT SPECIES NUMBER    1
     ------------------------------------------------------------
 -------------------------------------------------------------------------------------
 
 SOLVING FOR HEAD 

 Outer-Iteration  Inner-Iteration  Backtracking  Number of        Incoming       Outgoing      Cutoff     Maximum Head Change      Maximum Head Change
     Number           Count           Flag       Backtracks       Residual       Residual      Residual            Value               Location
        1                             0             0          0.156842E-01     0.156842E-01   -1.00000    
        1               12                                                                                       0.832165E-04               3154           GWF-node number
        2                             0             0          0.217520E-06     0.217520E-06   -1.00000    
        2                1                                                                                       0.806629E-06               2990           GWF-node number
     2 CALLS TO SPARSE MATRIX SOLVER PACKAGE  IN FLOW TIME STEP     182 STRESS PERIOD       2

 TOTAL OF       2OUTER ITERATIONS
  MAXIMUM CHANGE FOR EACH ITERATION:
   MAX. CHANGE        NODE  MAX. CHANGE        NODE  MAX. CHANGE        NODE  MAX. CHANGE        NODE  MAX. CHANGE        NODE
 ------------------------------------------------------------------------------------------------------------------------------------
   0.83216E-04,       3154  0.80663E-06,       2990

 NO OUTPUT CONTROL FOR STRESS PERIOD        2   TIME STEP      182



          TIME SUMMARY AT END OF TIME STEP       182 IN STRESS PERIOD         2
                    SECONDS     MINUTES      HOURS       DAYS        YEARS
                    -----------------------------------------------------------
   TIME STEP LENGTH  86.400      1.4400     2.40000E-02 1.00000E-03 2.73785E-06
 STRESS PERIOD TIME  15725.      262.08      4.3680     0.18200     4.98289E-04
         TOTAL TIME 1.02125E+05  1702.1      28.368      1.1820     3.23614E-03
1
 ------------------------------------------------------------------------------------------------------------
 
 SOLVING FOR TRANSPORT 

          SEQUENTIAL TRANSPORT ITERATION LOOP NUMBER    1
          -----------------------------------------------

 ------------------------------------------------------------------------------------------------------------------------
     1 CALLS TO SPARSE MATRIX SOLVER PACKAGE IN TRANSPORT TIME STEP     182 STRESS PERIOD       2 SPECIES  1

 TOTAL OF       1OUTER ITERATIONS
  MAXIMUM CHANGE FOR EACH ITERATION:
   MAX. CHANGE        NODE  MAX. CHANGE        NODE  MAX. CHANGE        NODE  MAX. CHANGE        NODE  MAX. CHANGE        NODE
 ------------------------------------------------------------------------------------------------------------------------------------
  -0.15883    ,       1280
     TRANSPORT SOLUTION COMPLETE FOR COMPONENT SPECIES NUMBER    1
     ------------------------------------------------------------

 TRANSPORT SOLUTION COMPLETE FOR ALL SPECIES, SORTING OUTPUT FOR CONCENTRATIONS AND MASS BALANCE
 ----------------------------------------------------------------------------------------------------
     TRANSPORT OUTPUT FOR COMPONENT SPECIES NUMBER    1
     ------------------------------------------------------------
 -------------------------------------------------------------------------------------
 
 SOLVING FOR HEAD 

 Outer-Iteration  Inner-Iteration  Backtracking  Number of        Incoming       Outgoing      Cutoff     Maximum Head Change      Maximum Head Change
     Number           Count           Flag       Backtracks       Residual       Residual      Residual            Value               Location
        1                             0             0          0.193867E-01     0.193867E-01   -1.00000    
        1               14                                                                                       0.799387E-04               3154           GWF-node number
        2                             0             0          0.400990E-07     0.400990E-07   -1.00000    
        2                1                                                                                      -0.509458E-06               3164           GWF-node number
     2 CALLS TO SPARSE MATRIX SOLVER PACKAGE  IN FLOW TIME STEP     183 STRESS PERIOD       2

 TOTAL OF       2OUTER ITERATIONS
  MAXIMUM CHANGE FOR EACH ITERATION:
   MAX. CHANGE        NODE  MAX. CHANGE        NODE  MAX. CHANGE        NODE  MAX. CHANGE        NODE  MAX. CHANGE        NODE
 ------------------------------------------------------------------------------------------------------------------------------------
   0.79939E-04,       3154 -0.50946E-06,       3164

 NO OUTPUT CONTROL FOR STRESS PERIOD        2   TIME STEP      183



          TIME SUMMARY AT END OF TIME STEP       183 IN STRESS PERIOD         2
                    SECONDS     MINUTES      HOURS       DAYS        YEARS
                    -----------------------------------------------------------
   TIME STEP LENGTH  86.400      1.4400     2.40000E-02 1.00000E-03 2.73785E-06
 STRESS PERIOD TIME  15811.      263.52      4.3920     0.18300     5.01027E-04
         TOTAL TIME 1.02211E+05  1703.5      28.392      1.1830     3.23888E-03
1
 ------------------------------------------------------------------------------------------------------------
 
 SOLVING FOR TRANSPORT 

          SEQUENTIAL TRANSPORT ITERATION LOOP NUMBER    1
          -----------------------------------------------

 ------------------------------------------------------------------------------------------------------------------------
     1 CALLS TO SPARSE MATRIX SOLVER PACKAGE IN TRANSPORT TIME STEP     183 STRESS PERIOD       2 SPECIES  1

 TOTAL OF       1OUTER ITERATIONS
  MAXIMUM CHANGE FOR EACH ITERATION:
   MAX. CHANGE        NODE  MAX. CHANGE        NODE  MAX. CHANGE        NODE  MAX. CHANGE        NODE  MAX. CHANGE        NODE
 ------------------------------------------------------------------------------------------------------------------------------------
  -0.18827    ,       1280
     TRANSPORT SOLUTION COMPLETE FOR COMPONENT SPECIES NUMBER    1
     ------------------------------------------------------------

 TRANSPORT SOLUTION COMPLETE FOR ALL SPECIES, SORTING OUTPUT FOR CONCENTRATIONS AND MASS BALANCE
 ----------------------------------------------------------------------------------------------------
     TRANSPORT OUTPUT FOR COMPONENT SPECIES NUMBER    1
     ------------------------------------------------------------
 -------------------------------------------------------------------------------------
 
 SOLVING FOR HEAD 

 Outer-Iteration  Inner-Iteration  Backtracking  Number of        Incoming       Outgoing      Cutoff     Maximum Head Change      Maximum Head Change
     Number           Count           Flag       Backtracks       Residual       Residual      Residual            Value               Location
        1                             0             0          0.231310E-01     0.231310E-01   -1.00000    
        1               11                                                                                       0.779834E-04               3154           GWF-node number
        2                             0             0          0.182867E-05     0.182867E-05   -1.00000    
        2                1                                                                                       0.700806E-06               2913           GWF-node number
     2 CALLS TO SPARSE MATRIX SOLVER PACKAGE  IN FLOW TIME STEP     184 STRESS PERIOD       2

 TOTAL OF       2OUTER ITERATIONS
  MAXIMUM CHANGE FOR EACH ITERATION:
   MAX. CHANGE        NODE  MAX. CHANGE        NODE  MAX. CHANGE        NODE  MAX. CHANGE        NODE  MAX. CHANGE        NODE
 ------------------------------------------------------------------------------------------------------------------------------------
   0.77983E-04,       3154  0.70081E-06,       2913

 NO OUTPUT CONTROL FOR STRESS PERIOD        2   TIME STEP      184



          TIME SUMMARY AT END OF TIME STEP       184 IN STRESS PERIOD         2
                    SECONDS     MINUTES      HOURS       DAYS        YEARS
                    -----------------------------------------------------------
   TIME STEP LENGTH  86.400      1.4400     2.40000E-02 1.00000E-03 2.73785E-06
 STRESS PERIOD TIME  15898.      264.96      4.4160     0.18400     5.03765E-04
         TOTAL TIME 1.02298E+05  1705.0      28.416      1.1840     3.24162E-03
1
 ------------------------------------------------------------------------------------------------------------
 
 SOLVING FOR TRANSPORT 

          SEQUENTIAL TRANSPORT ITERATION LOOP NUMBER    1
          -----------------------------------------------

 ------------------------------------------------------------------------------------------------------------------------
     1 CALLS TO SPARSE MATRIX SOLVER PACKAGE IN TRANSPORT TIME STEP     184 STRESS PERIOD       2 SPECIES  1

 TOTAL OF       1OUTER ITERATIONS
  MAXIMUM CHANGE FOR EACH ITERATION:
   MAX. CHANGE        NODE  MAX. CHANGE        NODE  MAX. CHANGE        NODE  MAX. CHANGE        NODE  MAX. CHANGE        NODE
 ------------------------------------------------------------------------------------------------------------------------------------
  -0.17322    ,       1280
     TRANSPORT SOLUTION COMPLETE FOR COMPONENT SPECIES NUMBER    1
     ------------------------------------------------------------

 TRANSPORT SOLUTION COMPLETE FOR ALL SPECIES, SORTING OUTPUT FOR CONCENTRATIONS AND MASS BALANCE
 ----------------------------------------------------------------------------------------------------
     TRANSPORT OUTPUT FOR COMPONENT SPECIES NUMBER    1
     ------------------------------------------------------------
 -------------------------------------------------------------------------------------
 
 SOLVING FOR HEAD 

 Outer-Iteration  Inner-Iteration  Backtracking  Number of        Incoming       Outgoing      Cutoff     Maximum Head Change      Maximum Head Change
     Number           Count           Flag       Backtracks       Residual       Residual      Residual            Value               Location
        1                             0             0          0.226606E-01     0.226606E-01   -1.00000    
        1               13                                                                                       0.758022E-04               3154           GWF-node number
        2                             0             0          0.135531E-06     0.135531E-06   -1.00000    
        2                1                                                                                      -0.642469E-06               2564           GWF-node number
     2 CALLS TO SPARSE MATRIX SOLVER PACKAGE  IN FLOW TIME STEP     185 STRESS PERIOD       2

 TOTAL OF       2OUTER ITERATIONS
  MAXIMUM CHANGE FOR EACH ITERATION:
   MAX. CHANGE        NODE  MAX. CHANGE        NODE  MAX. CHANGE        NODE  MAX. CHANGE        NODE  MAX. CHANGE        NODE
 ------------------------------------------------------------------------------------------------------------------------------------
   0.75802E-04,       3154 -0.64247E-06,       2564

 NO OUTPUT CONTROL FOR STRESS PERIOD        2   TIME STEP      185



          TIME SUMMARY AT END OF TIME STEP       185 IN STRESS PERIOD         2
                    SECONDS     MINUTES      HOURS       DAYS        YEARS
                    -----------------------------------------------------------
   TIME STEP LENGTH  86.400      1.4400     2.40000E-02 1.00000E-03 2.73785E-06
 STRESS PERIOD TIME  15984.      266.40      4.4400     0.18500     5.06502E-04
         TOTAL TIME 1.02384E+05  1706.4      28.440      1.1850     3.24435E-03
1
 ------------------------------------------------------------------------------------------------------------
 
 SOLVING FOR TRANSPORT 

          SEQUENTIAL TRANSPORT ITERATION LOOP NUMBER    1
          -----------------------------------------------

 ------------------------------------------------------------------------------------------------------------------------
     1 CALLS TO SPARSE MATRIX SOLVER PACKAGE IN TRANSPORT TIME STEP     185 STRESS PERIOD       2 SPECIES  1

 TOTAL OF       1OUTER ITERATIONS
  MAXIMUM CHANGE FOR EACH ITERATION:
   MAX. CHANGE        NODE  MAX. CHANGE        NODE  MAX. CHANGE        NODE  MAX. CHANGE        NODE  MAX. CHANGE        NODE
 ------------------------------------------------------------------------------------------------------------------------------------
   0.23185    ,       1440
     TRANSPORT SOLUTION COMPLETE FOR COMPONENT SPECIES NUMBER    1
     ------------------------------------------------------------

 TRANSPORT SOLUTION COMPLETE FOR ALL SPECIES, SORTING OUTPUT FOR CONCENTRATIONS AND MASS BALANCE
 ----------------------------------------------------------------------------------------------------
     TRANSPORT OUTPUT FOR COMPONENT SPECIES NUMBER    1
     ------------------------------------------------------------
 -------------------------------------------------------------------------------------
 
 SOLVING FOR HEAD 

 Outer-Iteration  Inner-Iteration  Backtracking  Number of        Incoming       Outgoing      Cutoff     Maximum Head Change      Maximum Head Change
     Number           Count           Flag       Backtracks       Residual       Residual      Residual            Value               Location
        1                             0             0          0.619360E-02     0.619360E-02   -1.00000    
        1               11                                                                                       0.784788E-04               3154           GWF-node number
        2                             0             0          0.271567E-06     0.271567E-06   -1.00000    
        2                1                                                                                      -0.343477E-06               2692           GWF-node number
     2 CALLS TO SPARSE MATRIX SOLVER PACKAGE  IN FLOW TIME STEP     186 STRESS PERIOD       2

 TOTAL OF       2OUTER ITERATIONS
  MAXIMUM CHANGE FOR EACH ITERATION:
   MAX. CHANGE        NODE  MAX. CHANGE        NODE  MAX. CHANGE        NODE  MAX. CHANGE        NODE  MAX. CHANGE        NODE
 ------------------------------------------------------------------------------------------------------------------------------------
   0.78479E-04,       3154 -0.34348E-06,       2692

 NO OUTPUT CONTROL FOR STRESS PERIOD        2   TIME STEP      186



          TIME SUMMARY AT END OF TIME STEP       186 IN STRESS PERIOD         2
                    SECONDS     MINUTES      HOURS       DAYS        YEARS
                    -----------------------------------------------------------
   TIME STEP LENGTH  86.400      1.4400     2.40000E-02 1.00000E-03 2.73785E-06
 STRESS PERIOD TIME  16070.      267.84      4.4640     0.18600     5.09240E-04
         TOTAL TIME 1.02470E+05  1707.8      28.464      1.1860     3.24709E-03
1
 ------------------------------------------------------------------------------------------------------------
 
 SOLVING FOR TRANSPORT 

          SEQUENTIAL TRANSPORT ITERATION LOOP NUMBER    1
          -----------------------------------------------

 ------------------------------------------------------------------------------------------------------------------------
     1 CALLS TO SPARSE MATRIX SOLVER PACKAGE IN TRANSPORT TIME STEP     186 STRESS PERIOD       2 SPECIES  1

 TOTAL OF       1OUTER ITERATIONS
  MAXIMUM CHANGE FOR EACH ITERATION:
   MAX. CHANGE        NODE  MAX. CHANGE        NODE  MAX. CHANGE        NODE  MAX. CHANGE        NODE  MAX. CHANGE        NODE
 ------------------------------------------------------------------------------------------------------------------------------------
   0.22891    ,       1360
     TRANSPORT SOLUTION COMPLETE FOR COMPONENT SPECIES NUMBER    1
     ------------------------------------------------------------

 TRANSPORT SOLUTION COMPLETE FOR ALL SPECIES, SORTING OUTPUT FOR CONCENTRATIONS AND MASS BALANCE
 ----------------------------------------------------------------------------------------------------
     TRANSPORT OUTPUT FOR COMPONENT SPECIES NUMBER    1
     ------------------------------------------------------------
 -------------------------------------------------------------------------------------
 
 SOLVING FOR HEAD 

 Outer-Iteration  Inner-Iteration  Backtracking  Number of        Incoming       Outgoing      Cutoff     Maximum Head Change      Maximum Head Change
     Number           Count           Flag       Backtracks       Residual       Residual      Residual            Value               Location
        1                             0             0          0.528426E-02     0.528426E-02   -1.00000    
        1               11                                                                                       0.784824E-04               3154           GWF-node number
        2                             0             0          0.501391E-06     0.501391E-06   -1.00000    
        2                2                                                                                       0.472497E-06               1556           GWF-node number
     2 CALLS TO SPARSE MATRIX SOLVER PACKAGE  IN FLOW TIME STEP     187 STRESS PERIOD       2

 TOTAL OF       2OUTER ITERATIONS
  MAXIMUM CHANGE FOR EACH ITERATION:
   MAX. CHANGE        NODE  MAX. CHANGE        NODE  MAX. CHANGE        NODE  MAX. CHANGE        NODE  MAX. CHANGE        NODE
 ------------------------------------------------------------------------------------------------------------------------------------
   0.78482E-04,       3154  0.47250E-06,       1556

 NO OUTPUT CONTROL FOR STRESS PERIOD        2   TIME STEP      187



          TIME SUMMARY AT END OF TIME STEP       187 IN STRESS PERIOD         2
                    SECONDS     MINUTES      HOURS       DAYS        YEARS
                    -----------------------------------------------------------
   TIME STEP LENGTH  86.400      1.4400     2.40000E-02 1.00000E-03 2.73785E-06
 STRESS PERIOD TIME  16157.      269.28      4.4880     0.18700     5.11978E-04
         TOTAL TIME 1.02557E+05  1709.3      28.488      1.1870     3.24983E-03
1
 ------------------------------------------------------------------------------------------------------------
 
 SOLVING FOR TRANSPORT 

          SEQUENTIAL TRANSPORT ITERATION LOOP NUMBER    1
          -----------------------------------------------

 ------------------------------------------------------------------------------------------------------------------------
     1 CALLS TO SPARSE MATRIX SOLVER PACKAGE IN TRANSPORT TIME STEP     187 STRESS PERIOD       2 SPECIES  1

 TOTAL OF       1OUTER ITERATIONS
  MAXIMUM CHANGE FOR EACH ITERATION:
   MAX. CHANGE        NODE  MAX. CHANGE        NODE  MAX. CHANGE        NODE  MAX. CHANGE        NODE  MAX. CHANGE        NODE
 ------------------------------------------------------------------------------------------------------------------------------------
   0.28221    ,       1360
     TRANSPORT SOLUTION COMPLETE FOR COMPONENT SPECIES NUMBER    1
     ------------------------------------------------------------

 TRANSPORT SOLUTION COMPLETE FOR ALL SPECIES, SORTING OUTPUT FOR CONCENTRATIONS AND MASS BALANCE
 ----------------------------------------------------------------------------------------------------
     TRANSPORT OUTPUT FOR COMPONENT SPECIES NUMBER    1
     ------------------------------------------------------------
 -------------------------------------------------------------------------------------
 
 SOLVING FOR HEAD 

 Outer-Iteration  Inner-Iteration  Backtracking  Number of        Incoming       Outgoing      Cutoff     Maximum Head Change      Maximum Head Change
     Number           Count           Flag       Backtracks       Residual       Residual      Residual            Value               Location
        1                             0             0          0.626123E-02     0.626123E-02   -1.00000    
        1               12                                                                                       0.799599E-04               3154           GWF-node number
        2                             0             0          0.264702E-06     0.264702E-06   -1.00000    
        2                1                                                                                       0.214612E-06                175           GWF-node number
     2 CALLS TO SPARSE MATRIX SOLVER PACKAGE  IN FLOW TIME STEP     188 STRESS PERIOD       2

 TOTAL OF       2OUTER ITERATIONS
  MAXIMUM CHANGE FOR EACH ITERATION:
   MAX. CHANGE        NODE  MAX. CHANGE        NODE  MAX. CHANGE        NODE  MAX. CHANGE        NODE  MAX. CHANGE        NODE
 ------------------------------------------------------------------------------------------------------------------------------------
   0.79960E-04,       3154  0.21461E-06,        175

 NO OUTPUT CONTROL FOR STRESS PERIOD        2   TIME STEP      188



          TIME SUMMARY AT END OF TIME STEP       188 IN STRESS PERIOD         2
                    SECONDS     MINUTES      HOURS       DAYS        YEARS
                    -----------------------------------------------------------
   TIME STEP LENGTH  86.400      1.4400     2.40000E-02 1.00000E-03 2.73785E-06
 STRESS PERIOD TIME  16243.      270.72      4.5120     0.18800     5.14716E-04
         TOTAL TIME 1.02643E+05  1710.7      28.512      1.1880     3.25257E-03
1
 ------------------------------------------------------------------------------------------------------------
 
 SOLVING FOR TRANSPORT 

          SEQUENTIAL TRANSPORT ITERATION LOOP NUMBER    1
          -----------------------------------------------

 ------------------------------------------------------------------------------------------------------------------------
     1 CALLS TO SPARSE MATRIX SOLVER PACKAGE IN TRANSPORT TIME STEP     188 STRESS PERIOD       2 SPECIES  1

 TOTAL OF       1OUTER ITERATIONS
  MAXIMUM CHANGE FOR EACH ITERATION:
   MAX. CHANGE        NODE  MAX. CHANGE        NODE  MAX. CHANGE        NODE  MAX. CHANGE        NODE  MAX. CHANGE        NODE
 ------------------------------------------------------------------------------------------------------------------------------------
   0.27002    ,       1360
     TRANSPORT SOLUTION COMPLETE FOR COMPONENT SPECIES NUMBER    1
     ------------------------------------------------------------

 TRANSPORT SOLUTION COMPLETE FOR ALL SPECIES, SORTING OUTPUT FOR CONCENTRATIONS AND MASS BALANCE
 ----------------------------------------------------------------------------------------------------
     TRANSPORT OUTPUT FOR COMPONENT SPECIES NUMBER    1
     ------------------------------------------------------------
 -------------------------------------------------------------------------------------
 
 SOLVING FOR HEAD 

 Outer-Iteration  Inner-Iteration  Backtracking  Number of        Incoming       Outgoing      Cutoff     Maximum Head Change      Maximum Head Change
     Number           Count           Flag       Backtracks       Residual       Residual      Residual            Value               Location
        1                             0             0          0.605204E-02     0.605204E-02   -1.00000    
        1               11                                                                                       0.774320E-04               3154           GWF-node number
        2                             0             0          0.367768E-06     0.367768E-06   -1.00000    
        2                1                                                                                       0.491981E-06               2648           GWF-node number
     2 CALLS TO SPARSE MATRIX SOLVER PACKAGE  IN FLOW TIME STEP     189 STRESS PERIOD       2

 TOTAL OF       2OUTER ITERATIONS
  MAXIMUM CHANGE FOR EACH ITERATION:
   MAX. CHANGE        NODE  MAX. CHANGE        NODE  MAX. CHANGE        NODE  MAX. CHANGE        NODE  MAX. CHANGE        NODE
 ------------------------------------------------------------------------------------------------------------------------------------
   0.77432E-04,       3154  0.49198E-06,       2648

 NO OUTPUT CONTROL FOR STRESS PERIOD        2   TIME STEP      189



          TIME SUMMARY AT END OF TIME STEP       189 IN STRESS PERIOD         2
                    SECONDS     MINUTES      HOURS       DAYS        YEARS
                    -----------------------------------------------------------
   TIME STEP LENGTH  86.400      1.4400     2.40000E-02 1.00000E-03 2.73785E-06
 STRESS PERIOD TIME  16330.      272.16      4.5360     0.18900     5.17454E-04
         TOTAL TIME 1.02730E+05  1712.2      28.536      1.1890     3.25530E-03
1
 ------------------------------------------------------------------------------------------------------------
 
 SOLVING FOR TRANSPORT 

          SEQUENTIAL TRANSPORT ITERATION LOOP NUMBER    1
          -----------------------------------------------

 ------------------------------------------------------------------------------------------------------------------------
     1 CALLS TO SPARSE MATRIX SOLVER PACKAGE IN TRANSPORT TIME STEP     189 STRESS PERIOD       2 SPECIES  1

 TOTAL OF       1OUTER ITERATIONS
  MAXIMUM CHANGE FOR EACH ITERATION:
   MAX. CHANGE        NODE  MAX. CHANGE        NODE  MAX. CHANGE        NODE  MAX. CHANGE        NODE  MAX. CHANGE        NODE
 ------------------------------------------------------------------------------------------------------------------------------------
   0.21951    ,       1280
     TRANSPORT SOLUTION COMPLETE FOR COMPONENT SPECIES NUMBER    1
     ------------------------------------------------------------

 TRANSPORT SOLUTION COMPLETE FOR ALL SPECIES, SORTING OUTPUT FOR CONCENTRATIONS AND MASS BALANCE
 ----------------------------------------------------------------------------------------------------
     TRANSPORT OUTPUT FOR COMPONENT SPECIES NUMBER    1
     ------------------------------------------------------------
 -------------------------------------------------------------------------------------
 
 SOLVING FOR HEAD 

 Outer-Iteration  Inner-Iteration  Backtracking  Number of        Incoming       Outgoing      Cutoff     Maximum Head Change      Maximum Head Change
     Number           Count           Flag       Backtracks       Residual       Residual      Residual            Value               Location
        1                             0             0          0.467525E-02     0.467525E-02   -1.00000    
        1               11                                                                                       0.749229E-04               3155           GWF-node number
        2                             0             0          0.185974E-06     0.185974E-06   -1.00000    
        2                1                                                                                      -0.803715E-06               3125           GWF-node number
     2 CALLS TO SPARSE MATRIX SOLVER PACKAGE  IN FLOW TIME STEP     190 STRESS PERIOD       2

 TOTAL OF       2OUTER ITERATIONS
  MAXIMUM CHANGE FOR EACH ITERATION:
   MAX. CHANGE        NODE  MAX. CHANGE        NODE  MAX. CHANGE        NODE  MAX. CHANGE        NODE  MAX. CHANGE        NODE
 ------------------------------------------------------------------------------------------------------------------------------------
   0.74923E-04,       3155 -0.80372E-06,       3125

 NO OUTPUT CONTROL FOR STRESS PERIOD        2   TIME STEP      190



          TIME SUMMARY AT END OF TIME STEP       190 IN STRESS PERIOD         2
                    SECONDS     MINUTES      HOURS       DAYS        YEARS
                    -----------------------------------------------------------
   TIME STEP LENGTH  86.400      1.4400     2.40000E-02 1.00000E-03 2.73785E-06
 STRESS PERIOD TIME  16416.      273.60      4.5600     0.19000     5.20192E-04
         TOTAL TIME 1.02816E+05  1713.6      28.560      1.1900     3.25804E-03
1
 ------------------------------------------------------------------------------------------------------------
 
 SOLVING FOR TRANSPORT 

          SEQUENTIAL TRANSPORT ITERATION LOOP NUMBER    1
          -----------------------------------------------

 ------------------------------------------------------------------------------------------------------------------------
     1 CALLS TO SPARSE MATRIX SOLVER PACKAGE IN TRANSPORT TIME STEP     190 STRESS PERIOD       2 SPECIES  1

 TOTAL OF       1OUTER ITERATIONS
  MAXIMUM CHANGE FOR EACH ITERATION:
   MAX. CHANGE        NODE  MAX. CHANGE        NODE  MAX. CHANGE        NODE  MAX. CHANGE        NODE  MAX. CHANGE        NODE
 ------------------------------------------------------------------------------------------------------------------------------------
   0.22190    ,       1280
     TRANSPORT SOLUTION COMPLETE FOR COMPONENT SPECIES NUMBER    1
     ------------------------------------------------------------

 TRANSPORT SOLUTION COMPLETE FOR ALL SPECIES, SORTING OUTPUT FOR CONCENTRATIONS AND MASS BALANCE
 ----------------------------------------------------------------------------------------------------
     TRANSPORT OUTPUT FOR COMPONENT SPECIES NUMBER    1
     ------------------------------------------------------------
 -------------------------------------------------------------------------------------
 
 SOLVING FOR HEAD 

 Outer-Iteration  Inner-Iteration  Backtracking  Number of        Incoming       Outgoing      Cutoff     Maximum Head Change      Maximum Head Change
     Number           Count           Flag       Backtracks       Residual       Residual      Residual            Value               Location
        1                             0             0          0.414973E-02     0.414973E-02   -1.00000    
        1               11                                                                                       0.734845E-04               3155           GWF-node number
        2                             0             0          0.260716E-06     0.260716E-06   -1.00000    
        2                1                                                                                       0.240184E-06               1763           GWF-node number
     2 CALLS TO SPARSE MATRIX SOLVER PACKAGE  IN FLOW TIME STEP     191 STRESS PERIOD       2

 TOTAL OF       2OUTER ITERATIONS
  MAXIMUM CHANGE FOR EACH ITERATION:
   MAX. CHANGE        NODE  MAX. CHANGE        NODE  MAX. CHANGE        NODE  MAX. CHANGE        NODE  MAX. CHANGE        NODE
 ------------------------------------------------------------------------------------------------------------------------------------
   0.73484E-04,       3155  0.24018E-06,       1763

 NO OUTPUT CONTROL FOR STRESS PERIOD        2   TIME STEP      191



          TIME SUMMARY AT END OF TIME STEP       191 IN STRESS PERIOD         2
                    SECONDS     MINUTES      HOURS       DAYS        YEARS
                    -----------------------------------------------------------
   TIME STEP LENGTH  86.400      1.4400     2.40000E-02 1.00000E-03 2.73785E-06
 STRESS PERIOD TIME  16502.      275.04      4.5840     0.19100     5.22929E-04
         TOTAL TIME 1.02902E+05  1715.0      28.584      1.1910     3.26078E-03
1
 ------------------------------------------------------------------------------------------------------------
 
 SOLVING FOR TRANSPORT 

          SEQUENTIAL TRANSPORT ITERATION LOOP NUMBER    1
          -----------------------------------------------

 ------------------------------------------------------------------------------------------------------------------------
     1 CALLS TO SPARSE MATRIX SOLVER PACKAGE IN TRANSPORT TIME STEP     191 STRESS PERIOD       2 SPECIES  1

 TOTAL OF       1OUTER ITERATIONS
  MAXIMUM CHANGE FOR EACH ITERATION:
   MAX. CHANGE        NODE  MAX. CHANGE        NODE  MAX. CHANGE        NODE  MAX. CHANGE        NODE  MAX. CHANGE        NODE
 ------------------------------------------------------------------------------------------------------------------------------------
   0.21166    ,       1280
     TRANSPORT SOLUTION COMPLETE FOR COMPONENT SPECIES NUMBER    1
     ------------------------------------------------------------

 TRANSPORT SOLUTION COMPLETE FOR ALL SPECIES, SORTING OUTPUT FOR CONCENTRATIONS AND MASS BALANCE
 ----------------------------------------------------------------------------------------------------
     TRANSPORT OUTPUT FOR COMPONENT SPECIES NUMBER    1
     ------------------------------------------------------------
 -------------------------------------------------------------------------------------
 
 SOLVING FOR HEAD 

 Outer-Iteration  Inner-Iteration  Backtracking  Number of        Incoming       Outgoing      Cutoff     Maximum Head Change      Maximum Head Change
     Number           Count           Flag       Backtracks       Residual       Residual      Residual            Value               Location
        1                             0             0          0.507476E-02     0.507476E-02   -1.00000    
        1               12                                                                                       0.698747E-04               3155           GWF-node number
        2                             0             0          0.919753E-06     0.919753E-06   -1.00000    
        2                1                                                                                      -0.437297E-06               2544           GWF-node number
     2 CALLS TO SPARSE MATRIX SOLVER PACKAGE  IN FLOW TIME STEP     192 STRESS PERIOD       2

 TOTAL OF       2OUTER ITERATIONS
  MAXIMUM CHANGE FOR EACH ITERATION:
   MAX. CHANGE        NODE  MAX. CHANGE        NODE  MAX. CHANGE        NODE  MAX. CHANGE        NODE  MAX. CHANGE        NODE
 ------------------------------------------------------------------------------------------------------------------------------------
   0.69875E-04,       3155 -0.43730E-06,       2544

 NO OUTPUT CONTROL FOR STRESS PERIOD        2   TIME STEP      192



          TIME SUMMARY AT END OF TIME STEP       192 IN STRESS PERIOD         2
                    SECONDS     MINUTES      HOURS       DAYS        YEARS
                    -----------------------------------------------------------
   TIME STEP LENGTH  86.400      1.4400     2.40000E-02 1.00000E-03 2.73785E-06
 STRESS PERIOD TIME  16589.      276.48      4.6080     0.19200     5.25667E-04
         TOTAL TIME 1.02989E+05  1716.5      28.608      1.1920     3.26352E-03
1
 ------------------------------------------------------------------------------------------------------------
 
 SOLVING FOR TRANSPORT 

          SEQUENTIAL TRANSPORT ITERATION LOOP NUMBER    1
          -----------------------------------------------

 ------------------------------------------------------------------------------------------------------------------------
     1 CALLS TO SPARSE MATRIX SOLVER PACKAGE IN TRANSPORT TIME STEP     192 STRESS PERIOD       2 SPECIES  1

 TOTAL OF       1OUTER ITERATIONS
  MAXIMUM CHANGE FOR EACH ITERATION:
   MAX. CHANGE        NODE  MAX. CHANGE        NODE  MAX. CHANGE        NODE  MAX. CHANGE        NODE  MAX. CHANGE        NODE
 ------------------------------------------------------------------------------------------------------------------------------------
   0.18213    ,       1280
     TRANSPORT SOLUTION COMPLETE FOR COMPONENT SPECIES NUMBER    1
     ------------------------------------------------------------

 TRANSPORT SOLUTION COMPLETE FOR ALL SPECIES, SORTING OUTPUT FOR CONCENTRATIONS AND MASS BALANCE
 ----------------------------------------------------------------------------------------------------
     TRANSPORT OUTPUT FOR COMPONENT SPECIES NUMBER    1
     ------------------------------------------------------------
 -------------------------------------------------------------------------------------
 
 SOLVING FOR HEAD 

 Outer-Iteration  Inner-Iteration  Backtracking  Number of        Incoming       Outgoing      Cutoff     Maximum Head Change      Maximum Head Change
     Number           Count           Flag       Backtracks       Residual       Residual      Residual            Value               Location
        1                             0             0          0.582348E-02     0.582348E-02   -1.00000    
        1               11                                                                                       0.671881E-04               3155           GWF-node number
        2                             0             0          0.329706E-06     0.329706E-06   -1.00000    
        2                1                                                                                      -0.642490E-06               1859           GWF-node number
     2 CALLS TO SPARSE MATRIX SOLVER PACKAGE  IN FLOW TIME STEP     193 STRESS PERIOD       2

 TOTAL OF       2OUTER ITERATIONS
  MAXIMUM CHANGE FOR EACH ITERATION:
   MAX. CHANGE        NODE  MAX. CHANGE        NODE  MAX. CHANGE        NODE  MAX. CHANGE        NODE  MAX. CHANGE        NODE
 ------------------------------------------------------------------------------------------------------------------------------------
   0.67188E-04,       3155 -0.64249E-06,       1859

 NO OUTPUT CONTROL FOR STRESS PERIOD        2   TIME STEP      193



          TIME SUMMARY AT END OF TIME STEP       193 IN STRESS PERIOD         2
                    SECONDS     MINUTES      HOURS       DAYS        YEARS
                    -----------------------------------------------------------
   TIME STEP LENGTH  86.400      1.4400     2.40000E-02 1.00000E-03 2.73785E-06
 STRESS PERIOD TIME  16675.      277.92      4.6320     0.19300     5.28405E-04
         TOTAL TIME 1.03075E+05  1717.9      28.632      1.1930     3.26626E-03
1
 ------------------------------------------------------------------------------------------------------------
 
 SOLVING FOR TRANSPORT 

          SEQUENTIAL TRANSPORT ITERATION LOOP NUMBER    1
          -----------------------------------------------

 ------------------------------------------------------------------------------------------------------------------------
     1 CALLS TO SPARSE MATRIX SOLVER PACKAGE IN TRANSPORT TIME STEP     193 STRESS PERIOD       2 SPECIES  1

 TOTAL OF       1OUTER ITERATIONS
  MAXIMUM CHANGE FOR EACH ITERATION:
   MAX. CHANGE        NODE  MAX. CHANGE        NODE  MAX. CHANGE        NODE  MAX. CHANGE        NODE  MAX. CHANGE        NODE
 ------------------------------------------------------------------------------------------------------------------------------------
  -0.15232    ,       1600
     TRANSPORT SOLUTION COMPLETE FOR COMPONENT SPECIES NUMBER    1
     ------------------------------------------------------------

 TRANSPORT SOLUTION COMPLETE FOR ALL SPECIES, SORTING OUTPUT FOR CONCENTRATIONS AND MASS BALANCE
 ----------------------------------------------------------------------------------------------------
     TRANSPORT OUTPUT FOR COMPONENT SPECIES NUMBER    1
     ------------------------------------------------------------
 -------------------------------------------------------------------------------------
 
 SOLVING FOR HEAD 

 Outer-Iteration  Inner-Iteration  Backtracking  Number of        Incoming       Outgoing      Cutoff     Maximum Head Change      Maximum Head Change
     Number           Count           Flag       Backtracks       Residual       Residual      Residual            Value               Location
        1                             0             0          0.525144E-02     0.525144E-02   -1.00000    
        1               12                                                                                       0.616235E-04               3155           GWF-node number
        2                             0             0          0.771839E-07     0.771839E-07   -1.00000    
        2                1                                                                                       0.357817E-06               2910           GWF-node number
     2 CALLS TO SPARSE MATRIX SOLVER PACKAGE  IN FLOW TIME STEP     194 STRESS PERIOD       2

 TOTAL OF       2OUTER ITERATIONS
  MAXIMUM CHANGE FOR EACH ITERATION:
   MAX. CHANGE        NODE  MAX. CHANGE        NODE  MAX. CHANGE        NODE  MAX. CHANGE        NODE  MAX. CHANGE        NODE
 ------------------------------------------------------------------------------------------------------------------------------------
   0.61624E-04,       3155  0.35782E-06,       2910

 NO OUTPUT CONTROL FOR STRESS PERIOD        2   TIME STEP      194



          TIME SUMMARY AT END OF TIME STEP       194 IN STRESS PERIOD         2
                    SECONDS     MINUTES      HOURS       DAYS        YEARS
                    -----------------------------------------------------------
   TIME STEP LENGTH  86.400      1.4400     2.40000E-02 1.00000E-03 2.73785E-06
 STRESS PERIOD TIME  16762.      279.36      4.6560     0.19400     5.31143E-04
         TOTAL TIME 1.03162E+05  1719.4      28.656      1.1940     3.26899E-03
1
 ------------------------------------------------------------------------------------------------------------
 
 SOLVING FOR TRANSPORT 

          SEQUENTIAL TRANSPORT ITERATION LOOP NUMBER    1
          -----------------------------------------------

 ------------------------------------------------------------------------------------------------------------------------
     1 CALLS TO SPARSE MATRIX SOLVER PACKAGE IN TRANSPORT TIME STEP     194 STRESS PERIOD       2 SPECIES  1

 TOTAL OF       1OUTER ITERATIONS
  MAXIMUM CHANGE FOR EACH ITERATION:
   MAX. CHANGE        NODE  MAX. CHANGE        NODE  MAX. CHANGE        NODE  MAX. CHANGE        NODE  MAX. CHANGE        NODE
 ------------------------------------------------------------------------------------------------------------------------------------
  -0.18838    ,       1600
     TRANSPORT SOLUTION COMPLETE FOR COMPONENT SPECIES NUMBER    1
     ------------------------------------------------------------

 TRANSPORT SOLUTION COMPLETE FOR ALL SPECIES, SORTING OUTPUT FOR CONCENTRATIONS AND MASS BALANCE
 ----------------------------------------------------------------------------------------------------
     TRANSPORT OUTPUT FOR COMPONENT SPECIES NUMBER    1
     ------------------------------------------------------------
 -------------------------------------------------------------------------------------
 
 SOLVING FOR HEAD 

 Outer-Iteration  Inner-Iteration  Backtracking  Number of        Incoming       Outgoing      Cutoff     Maximum Head Change      Maximum Head Change
     Number           Count           Flag       Backtracks       Residual       Residual      Residual            Value               Location
        1                             0             0          0.493594E-02     0.493594E-02   -1.00000    
        1               10                                                                                       0.575357E-04               3155           GWF-node number
        2                             0             0          0.726773E-05     0.726773E-05   -1.00000    
        2                3                                                                                       0.170035E-05               3073           GWF-node number
     2 CALLS TO SPARSE MATRIX SOLVER PACKAGE  IN FLOW TIME STEP     195 STRESS PERIOD       2

 TOTAL OF       2OUTER ITERATIONS
  MAXIMUM CHANGE FOR EACH ITERATION:
   MAX. CHANGE        NODE  MAX. CHANGE        NODE  MAX. CHANGE        NODE  MAX. CHANGE        NODE  MAX. CHANGE        NODE
 ------------------------------------------------------------------------------------------------------------------------------------
   0.57536E-04,       3155  0.17003E-05,       3073

 NO OUTPUT CONTROL FOR STRESS PERIOD        2   TIME STEP      195



          TIME SUMMARY AT END OF TIME STEP       195 IN STRESS PERIOD         2
                    SECONDS     MINUTES      HOURS       DAYS        YEARS
                    -----------------------------------------------------------
   TIME STEP LENGTH  86.400      1.4400     2.40000E-02 1.00000E-03 2.73785E-06
 STRESS PERIOD TIME  16848.      280.80      4.6800     0.19500     5.33881E-04
         TOTAL TIME 1.03248E+05  1720.8      28.680      1.1950     3.27173E-03
1
 ------------------------------------------------------------------------------------------------------------
 
 SOLVING FOR TRANSPORT 

          SEQUENTIAL TRANSPORT ITERATION LOOP NUMBER    1
          -----------------------------------------------

 ------------------------------------------------------------------------------------------------------------------------
     1 CALLS TO SPARSE MATRIX SOLVER PACKAGE IN TRANSPORT TIME STEP     195 STRESS PERIOD       2 SPECIES  1

 TOTAL OF       1OUTER ITERATIONS
  MAXIMUM CHANGE FOR EACH ITERATION:
   MAX. CHANGE        NODE  MAX. CHANGE        NODE  MAX. CHANGE        NODE  MAX. CHANGE        NODE  MAX. CHANGE        NODE
 ------------------------------------------------------------------------------------------------------------------------------------
  -0.21041    ,       1520
     TRANSPORT SOLUTION COMPLETE FOR COMPONENT SPECIES NUMBER    1
     ------------------------------------------------------------

 TRANSPORT SOLUTION COMPLETE FOR ALL SPECIES, SORTING OUTPUT FOR CONCENTRATIONS AND MASS BALANCE
 ----------------------------------------------------------------------------------------------------
     TRANSPORT OUTPUT FOR COMPONENT SPECIES NUMBER    1
     ------------------------------------------------------------
 -------------------------------------------------------------------------------------
 
 SOLVING FOR HEAD 

 Outer-Iteration  Inner-Iteration  Backtracking  Number of        Incoming       Outgoing      Cutoff     Maximum Head Change      Maximum Head Change
     Number           Count           Flag       Backtracks       Residual       Residual      Residual            Value               Location
        1                             0             0          0.492426E-02     0.492426E-02   -1.00000    
        1               11                                                                                       0.527820E-04               3155           GWF-node number
        2                             0             0          0.550673E-06     0.550673E-06   -1.00000    
        2                1                                                                                      -0.559949E-06               3045           GWF-node number
     2 CALLS TO SPARSE MATRIX SOLVER PACKAGE  IN FLOW TIME STEP     196 STRESS PERIOD       2

 TOTAL OF       2OUTER ITERATIONS
  MAXIMUM CHANGE FOR EACH ITERATION:
   MAX. CHANGE        NODE  MAX. CHANGE        NODE  MAX. CHANGE        NODE  MAX. CHANGE        NODE  MAX. CHANGE        NODE
 ------------------------------------------------------------------------------------------------------------------------------------
   0.52782E-04,       3155 -0.55995E-06,       3045

 NO OUTPUT CONTROL FOR STRESS PERIOD        2   TIME STEP      196



          TIME SUMMARY AT END OF TIME STEP       196 IN STRESS PERIOD         2
                    SECONDS     MINUTES      HOURS       DAYS        YEARS
                    -----------------------------------------------------------
   TIME STEP LENGTH  86.400      1.4400     2.40000E-02 1.00000E-03 2.73785E-06
 STRESS PERIOD TIME  16934.      282.24      4.7040     0.19600     5.36619E-04
         TOTAL TIME 1.03334E+05  1722.2      28.704      1.1960     3.27447E-03
1
 ------------------------------------------------------------------------------------------------------------
 
 SOLVING FOR TRANSPORT 

          SEQUENTIAL TRANSPORT ITERATION LOOP NUMBER    1
          -----------------------------------------------

 ------------------------------------------------------------------------------------------------------------------------
     1 CALLS TO SPARSE MATRIX SOLVER PACKAGE IN TRANSPORT TIME STEP     196 STRESS PERIOD       2 SPECIES  1

 TOTAL OF       1OUTER ITERATIONS
  MAXIMUM CHANGE FOR EACH ITERATION:
   MAX. CHANGE        NODE  MAX. CHANGE        NODE  MAX. CHANGE        NODE  MAX. CHANGE        NODE  MAX. CHANGE        NODE
 ------------------------------------------------------------------------------------------------------------------------------------
  -0.25941    ,       1520
     TRANSPORT SOLUTION COMPLETE FOR COMPONENT SPECIES NUMBER    1
     ------------------------------------------------------------

 TRANSPORT SOLUTION COMPLETE FOR ALL SPECIES, SORTING OUTPUT FOR CONCENTRATIONS AND MASS BALANCE
 ----------------------------------------------------------------------------------------------------
     TRANSPORT OUTPUT FOR COMPONENT SPECIES NUMBER    1
     ------------------------------------------------------------
 -------------------------------------------------------------------------------------
 
 SOLVING FOR HEAD 

 Outer-Iteration  Inner-Iteration  Backtracking  Number of        Incoming       Outgoing      Cutoff     Maximum Head Change      Maximum Head Change
     Number           Count           Flag       Backtracks       Residual       Residual      Residual            Value               Location
        1                             0             0          0.722535E-02     0.722535E-02   -1.00000    
        1               11                                                                                       0.525352E-04               3155           GWF-node number
        2                             0             0          0.123558E-05     0.123558E-05   -1.00000    
        2                1                                                                                       0.536348E-06               2401           GWF-node number
     2 CALLS TO SPARSE MATRIX SOLVER PACKAGE  IN FLOW TIME STEP     197 STRESS PERIOD       2

 TOTAL OF       2OUTER ITERATIONS
  MAXIMUM CHANGE FOR EACH ITERATION:
   MAX. CHANGE        NODE  MAX. CHANGE        NODE  MAX. CHANGE        NODE  MAX. CHANGE        NODE  MAX. CHANGE        NODE
 ------------------------------------------------------------------------------------------------------------------------------------
   0.52535E-04,       3155  0.53635E-06,       2401

 NO OUTPUT CONTROL FOR STRESS PERIOD        2   TIME STEP      197



          TIME SUMMARY AT END OF TIME STEP       197 IN STRESS PERIOD         2
                    SECONDS     MINUTES      HOURS       DAYS        YEARS
                    -----------------------------------------------------------
   TIME STEP LENGTH  86.400      1.4400     2.40000E-02 1.00000E-03 2.73785E-06
 STRESS PERIOD TIME  17021.      283.68      4.7280     0.19700     5.39357E-04
         TOTAL TIME 1.03421E+05  1723.7      28.728      1.1970     3.27721E-03
1
 ------------------------------------------------------------------------------------------------------------
 
 SOLVING FOR TRANSPORT 

          SEQUENTIAL TRANSPORT ITERATION LOOP NUMBER    1
          -----------------------------------------------

 ------------------------------------------------------------------------------------------------------------------------
     1 CALLS TO SPARSE MATRIX SOLVER PACKAGE IN TRANSPORT TIME STEP     197 STRESS PERIOD       2 SPECIES  1

 TOTAL OF       1OUTER ITERATIONS
  MAXIMUM CHANGE FOR EACH ITERATION:
   MAX. CHANGE        NODE  MAX. CHANGE        NODE  MAX. CHANGE        NODE  MAX. CHANGE        NODE  MAX. CHANGE        NODE
 ------------------------------------------------------------------------------------------------------------------------------------
  -0.23636    ,       1440
     TRANSPORT SOLUTION COMPLETE FOR COMPONENT SPECIES NUMBER    1
     ------------------------------------------------------------

 TRANSPORT SOLUTION COMPLETE FOR ALL SPECIES, SORTING OUTPUT FOR CONCENTRATIONS AND MASS BALANCE
 ----------------------------------------------------------------------------------------------------
     TRANSPORT OUTPUT FOR COMPONENT SPECIES NUMBER    1
     ------------------------------------------------------------
 -------------------------------------------------------------------------------------
 
 SOLVING FOR HEAD 

 Outer-Iteration  Inner-Iteration  Backtracking  Number of        Incoming       Outgoing      Cutoff     Maximum Head Change      Maximum Head Change
     Number           Count           Flag       Backtracks       Residual       Residual      Residual            Value               Location
        1                             0             0          0.597616E-02     0.597616E-02   -1.00000    
        1                9                                                                                       0.492582E-04               3155           GWF-node number
        2                             0             0          0.525073E-05     0.525073E-05   -1.00000    
        2                5                                                                                       0.614077E-06               2522           GWF-node number
     2 CALLS TO SPARSE MATRIX SOLVER PACKAGE  IN FLOW TIME STEP     198 STRESS PERIOD       2

 TOTAL OF       2OUTER ITERATIONS
  MAXIMUM CHANGE FOR EACH ITERATION:
   MAX. CHANGE        NODE  MAX. CHANGE        NODE  MAX. CHANGE        NODE  MAX. CHANGE        NODE  MAX. CHANGE        NODE
 ------------------------------------------------------------------------------------------------------------------------------------
   0.49258E-04,       3155  0.61408E-06,       2522

 NO OUTPUT CONTROL FOR STRESS PERIOD        2   TIME STEP      198



          TIME SUMMARY AT END OF TIME STEP       198 IN STRESS PERIOD         2
                    SECONDS     MINUTES      HOURS       DAYS        YEARS
                    -----------------------------------------------------------
   TIME STEP LENGTH  86.400      1.4400     2.40000E-02 1.00000E-03 2.73785E-06
 STRESS PERIOD TIME  17107.      285.12      4.7520     0.19800     5.42094E-04
         TOTAL TIME 1.03507E+05  1725.1      28.752      1.1980     3.27995E-03
1
 ------------------------------------------------------------------------------------------------------------
 
 SOLVING FOR TRANSPORT 

          SEQUENTIAL TRANSPORT ITERATION LOOP NUMBER    1
          -----------------------------------------------

 ------------------------------------------------------------------------------------------------------------------------
     1 CALLS TO SPARSE MATRIX SOLVER PACKAGE IN TRANSPORT TIME STEP     198 STRESS PERIOD       2 SPECIES  1

 TOTAL OF       1OUTER ITERATIONS
  MAXIMUM CHANGE FOR EACH ITERATION:
   MAX. CHANGE        NODE  MAX. CHANGE        NODE  MAX. CHANGE        NODE  MAX. CHANGE        NODE  MAX. CHANGE        NODE
 ------------------------------------------------------------------------------------------------------------------------------------
  -0.29934    ,       1440
     TRANSPORT SOLUTION COMPLETE FOR COMPONENT SPECIES NUMBER    1
     ------------------------------------------------------------

 TRANSPORT SOLUTION COMPLETE FOR ALL SPECIES, SORTING OUTPUT FOR CONCENTRATIONS AND MASS BALANCE
 ----------------------------------------------------------------------------------------------------
     TRANSPORT OUTPUT FOR COMPONENT SPECIES NUMBER    1
     ------------------------------------------------------------
 -------------------------------------------------------------------------------------
 
 SOLVING FOR HEAD 

 Outer-Iteration  Inner-Iteration  Backtracking  Number of        Incoming       Outgoing      Cutoff     Maximum Head Change      Maximum Head Change
     Number           Count           Flag       Backtracks       Residual       Residual      Residual            Value               Location
        1                             0             0          0.110690E-01     0.110690E-01   -1.00000    
        1               14                                                                                       0.481983E-04               3155           GWF-node number
        2                             0             0          0.310934E-07     0.310934E-07   -1.00000    
        2                1                                                                                       0.299226E-06               3150           GWF-node number
     2 CALLS TO SPARSE MATRIX SOLVER PACKAGE  IN FLOW TIME STEP     199 STRESS PERIOD       2

 TOTAL OF       2OUTER ITERATIONS
  MAXIMUM CHANGE FOR EACH ITERATION:
   MAX. CHANGE        NODE  MAX. CHANGE        NODE  MAX. CHANGE        NODE  MAX. CHANGE        NODE  MAX. CHANGE        NODE
 ------------------------------------------------------------------------------------------------------------------------------------
   0.48198E-04,       3155  0.29923E-06,       3150

 NO OUTPUT CONTROL FOR STRESS PERIOD        2   TIME STEP      199



          TIME SUMMARY AT END OF TIME STEP       199 IN STRESS PERIOD         2
                    SECONDS     MINUTES      HOURS       DAYS        YEARS
                    -----------------------------------------------------------
   TIME STEP LENGTH  86.400      1.4400     2.40000E-02 1.00000E-03 2.73785E-06
 STRESS PERIOD TIME  17194.      286.56      4.7760     0.19900     5.44832E-04
         TOTAL TIME 1.03594E+05  1726.6      28.776      1.1990     3.28268E-03
1
 ------------------------------------------------------------------------------------------------------------
 
 SOLVING FOR TRANSPORT 

          SEQUENTIAL TRANSPORT ITERATION LOOP NUMBER    1
          -----------------------------------------------

 ------------------------------------------------------------------------------------------------------------------------
     1 CALLS TO SPARSE MATRIX SOLVER PACKAGE IN TRANSPORT TIME STEP     199 STRESS PERIOD       2 SPECIES  1

 TOTAL OF       1OUTER ITERATIONS
  MAXIMUM CHANGE FOR EACH ITERATION:
   MAX. CHANGE        NODE  MAX. CHANGE        NODE  MAX. CHANGE        NODE  MAX. CHANGE        NODE  MAX. CHANGE        NODE
 ------------------------------------------------------------------------------------------------------------------------------------
  -0.29231    ,       1440
     TRANSPORT SOLUTION COMPLETE FOR COMPONENT SPECIES NUMBER    1
     ------------------------------------------------------------

 TRANSPORT SOLUTION COMPLETE FOR ALL SPECIES, SORTING OUTPUT FOR CONCENTRATIONS AND MASS BALANCE
 ----------------------------------------------------------------------------------------------------
     TRANSPORT OUTPUT FOR COMPONENT SPECIES NUMBER    1
     ------------------------------------------------------------
 -------------------------------------------------------------------------------------
 
 SOLVING FOR HEAD 

 Outer-Iteration  Inner-Iteration  Backtracking  Number of        Incoming       Outgoing      Cutoff     Maximum Head Change      Maximum Head Change
     Number           Count           Flag       Backtracks       Residual       Residual      Residual            Value               Location
        1                             0             0          0.115557E-01     0.115557E-01   -1.00000    
        1               10                                                                                       0.472910E-04               3155           GWF-node number
        2                             0             0          0.316935E-05     0.316935E-05   -1.00000    
        2                4                                                                                      -0.399796E-06                 44           GWF-node number
     2 CALLS TO SPARSE MATRIX SOLVER PACKAGE  IN FLOW TIME STEP     200 STRESS PERIOD       2

 TOTAL OF       2OUTER ITERATIONS
  MAXIMUM CHANGE FOR EACH ITERATION:
   MAX. CHANGE        NODE  MAX. CHANGE        NODE  MAX. CHANGE        NODE  MAX. CHANGE        NODE  MAX. CHANGE        NODE
 ------------------------------------------------------------------------------------------------------------------------------------
   0.47291E-04,       3155 -0.39980E-06,         44

 NO OUTPUT CONTROL FOR STRESS PERIOD        2   TIME STEP      200



          TIME SUMMARY AT END OF TIME STEP       200 IN STRESS PERIOD         2
                    SECONDS     MINUTES      HOURS       DAYS        YEARS
                    -----------------------------------------------------------
   TIME STEP LENGTH  86.400      1.4400     2.40000E-02 1.00000E-03 2.73785E-06
 STRESS PERIOD TIME  17280.      288.00      4.8000     0.20000     5.47570E-04
         TOTAL TIME 1.03680E+05  1728.0      28.800      1.2000     3.28542E-03
1
 ------------------------------------------------------------------------------------------------------------
 
 SOLVING FOR TRANSPORT 

          SEQUENTIAL TRANSPORT ITERATION LOOP NUMBER    1
          -----------------------------------------------

 ------------------------------------------------------------------------------------------------------------------------
     1 CALLS TO SPARSE MATRIX SOLVER PACKAGE IN TRANSPORT TIME STEP     200 STRESS PERIOD       2 SPECIES  1

 TOTAL OF       1OUTER ITERATIONS
  MAXIMUM CHANGE FOR EACH ITERATION:
   MAX. CHANGE        NODE  MAX. CHANGE        NODE  MAX. CHANGE        NODE  MAX. CHANGE        NODE  MAX. CHANGE        NODE
 ------------------------------------------------------------------------------------------------------------------------------------
  -0.20820    ,       1360
     TRANSPORT SOLUTION COMPLETE FOR COMPONENT SPECIES NUMBER    1
     ------------------------------------------------------------

 TRANSPORT SOLUTION COMPLETE FOR ALL SPECIES, SORTING OUTPUT FOR CONCENTRATIONS AND MASS BALANCE
 ----------------------------------------------------------------------------------------------------
     TRANSPORT OUTPUT FOR COMPONENT SPECIES NUMBER    1
     ------------------------------------------------------------
 -------------------------------------------------------------------------------------
 
 SOLVING FOR HEAD 

 Outer-Iteration  Inner-Iteration  Backtracking  Number of        Incoming       Outgoing      Cutoff     Maximum Head Change      Maximum Head Change
     Number           Count           Flag       Backtracks       Residual       Residual      Residual            Value               Location
        1                             0             0          0.708540E-02     0.708540E-02   -1.00000    
        1                9                                                                                       0.465986E-04               3155           GWF-node number
        2                             0             0          0.208770E-05     0.208770E-05   -1.00000    
        2                2                                                                                      -0.886769E-06               2927           GWF-node number
     2 CALLS TO SPARSE MATRIX SOLVER PACKAGE  IN FLOW TIME STEP     201 STRESS PERIOD       2

 TOTAL OF       2OUTER ITERATIONS
  MAXIMUM CHANGE FOR EACH ITERATION:
   MAX. CHANGE        NODE  MAX. CHANGE        NODE  MAX. CHANGE        NODE  MAX. CHANGE        NODE  MAX. CHANGE        NODE
 ------------------------------------------------------------------------------------------------------------------------------------
   0.46599E-04,       3155 -0.88677E-06,       2927

 NO OUTPUT CONTROL FOR STRESS PERIOD        2   TIME STEP      201



          TIME SUMMARY AT END OF TIME STEP       201 IN STRESS PERIOD         2
                    SECONDS     MINUTES      HOURS       DAYS        YEARS
                    -----------------------------------------------------------
   TIME STEP LENGTH  86.400      1.4400     2.40000E-02 1.00000E-03 2.73785E-06
 STRESS PERIOD TIME  17366.      289.44      4.8240     0.20100     5.50308E-04
         TOTAL TIME 1.03766E+05  1729.4      28.824      1.2010     3.28816E-03
1
 ------------------------------------------------------------------------------------------------------------
 
 SOLVING FOR TRANSPORT 

          SEQUENTIAL TRANSPORT ITERATION LOOP NUMBER    1
          -----------------------------------------------

 ------------------------------------------------------------------------------------------------------------------------
     1 CALLS TO SPARSE MATRIX SOLVER PACKAGE IN TRANSPORT TIME STEP     201 STRESS PERIOD       2 SPECIES  1

 TOTAL OF       1OUTER ITERATIONS
  MAXIMUM CHANGE FOR EACH ITERATION:
   MAX. CHANGE        NODE  MAX. CHANGE        NODE  MAX. CHANGE        NODE  MAX. CHANGE        NODE  MAX. CHANGE        NODE
 ------------------------------------------------------------------------------------------------------------------------------------
  -0.25177    ,       1360
     TRANSPORT SOLUTION COMPLETE FOR COMPONENT SPECIES NUMBER    1
     ------------------------------------------------------------

 TRANSPORT SOLUTION COMPLETE FOR ALL SPECIES, SORTING OUTPUT FOR CONCENTRATIONS AND MASS BALANCE
 ----------------------------------------------------------------------------------------------------
     TRANSPORT OUTPUT FOR COMPONENT SPECIES NUMBER    1
     ------------------------------------------------------------
 -------------------------------------------------------------------------------------
 
 SOLVING FOR HEAD 

 Outer-Iteration  Inner-Iteration  Backtracking  Number of        Incoming       Outgoing      Cutoff     Maximum Head Change      Maximum Head Change
     Number           Count           Flag       Backtracks       Residual       Residual      Residual            Value               Location
        1                             0             0          0.100940E-01     0.100940E-01   -1.00000    
        1               12                                                                                       0.468541E-04               3155           GWF-node number
        2                             0             0          0.151930E-06     0.151930E-06   -1.00000    
        2                1                                                                                      -0.566273E-06               3041           GWF-node number
     2 CALLS TO SPARSE MATRIX SOLVER PACKAGE  IN FLOW TIME STEP     202 STRESS PERIOD       2

 TOTAL OF       2OUTER ITERATIONS
  MAXIMUM CHANGE FOR EACH ITERATION:
   MAX. CHANGE        NODE  MAX. CHANGE        NODE  MAX. CHANGE        NODE  MAX. CHANGE        NODE  MAX. CHANGE        NODE
 ------------------------------------------------------------------------------------------------------------------------------------
   0.46854E-04,       3155 -0.56627E-06,       3041

 NO OUTPUT CONTROL FOR STRESS PERIOD        2   TIME STEP      202



          TIME SUMMARY AT END OF TIME STEP       202 IN STRESS PERIOD         2
                    SECONDS     MINUTES      HOURS       DAYS        YEARS
                    -----------------------------------------------------------
   TIME STEP LENGTH  86.400      1.4400     2.40000E-02 1.00000E-03 2.73785E-06
 STRESS PERIOD TIME  17453.      290.88      4.8480     0.20200     5.53046E-04
         TOTAL TIME 1.03853E+05  1730.9      28.848      1.2020     3.29090E-03
1
 ------------------------------------------------------------------------------------------------------------
 
 SOLVING FOR TRANSPORT 

          SEQUENTIAL TRANSPORT ITERATION LOOP NUMBER    1
          -----------------------------------------------

 ------------------------------------------------------------------------------------------------------------------------
     1 CALLS TO SPARSE MATRIX SOLVER PACKAGE IN TRANSPORT TIME STEP     202 STRESS PERIOD       2 SPECIES  1

 TOTAL OF       1OUTER ITERATIONS
  MAXIMUM CHANGE FOR EACH ITERATION:
   MAX. CHANGE        NODE  MAX. CHANGE        NODE  MAX. CHANGE        NODE  MAX. CHANGE        NODE  MAX. CHANGE        NODE
 ------------------------------------------------------------------------------------------------------------------------------------
  -0.34779    ,       1360
     TRANSPORT SOLUTION COMPLETE FOR COMPONENT SPECIES NUMBER    1
     ------------------------------------------------------------

 TRANSPORT SOLUTION COMPLETE FOR ALL SPECIES, SORTING OUTPUT FOR CONCENTRATIONS AND MASS BALANCE
 ----------------------------------------------------------------------------------------------------
     TRANSPORT OUTPUT FOR COMPONENT SPECIES NUMBER    1
     ------------------------------------------------------------
 -------------------------------------------------------------------------------------
 
 SOLVING FOR HEAD 

 Outer-Iteration  Inner-Iteration  Backtracking  Number of        Incoming       Outgoing      Cutoff     Maximum Head Change      Maximum Head Change
     Number           Count           Flag       Backtracks       Residual       Residual      Residual            Value               Location
        1                             0             0          0.237350E-01     0.237350E-01   -1.00000    
        1               10                                                                                       0.436214E-04               3155           GWF-node number
        2                             0             0          0.145541E-05     0.145541E-05   -1.00000    
        2                1                                                                                       0.916839E-06               1549           GWF-node number
     2 CALLS TO SPARSE MATRIX SOLVER PACKAGE  IN FLOW TIME STEP     203 STRESS PERIOD       2

 TOTAL OF       2OUTER ITERATIONS
  MAXIMUM CHANGE FOR EACH ITERATION:
   MAX. CHANGE        NODE  MAX. CHANGE        NODE  MAX. CHANGE        NODE  MAX. CHANGE        NODE  MAX. CHANGE        NODE
 ------------------------------------------------------------------------------------------------------------------------------------
   0.43621E-04,       3155  0.91684E-06,       1549

 NO OUTPUT CONTROL FOR STRESS PERIOD        2   TIME STEP      203



          TIME SUMMARY AT END OF TIME STEP       203 IN STRESS PERIOD         2
                    SECONDS     MINUTES      HOURS       DAYS        YEARS
                    -----------------------------------------------------------
   TIME STEP LENGTH  86.400      1.4400     2.40000E-02 1.00000E-03 2.73785E-06
 STRESS PERIOD TIME  17539.      292.32      4.8720     0.20300     5.55784E-04
         TOTAL TIME 1.03939E+05  1732.3      28.872      1.2030     3.29363E-03
1
 ------------------------------------------------------------------------------------------------------------
 
 SOLVING FOR TRANSPORT 

          SEQUENTIAL TRANSPORT ITERATION LOOP NUMBER    1
          -----------------------------------------------

 ------------------------------------------------------------------------------------------------------------------------
     1 CALLS TO SPARSE MATRIX SOLVER PACKAGE IN TRANSPORT TIME STEP     203 STRESS PERIOD       2 SPECIES  1

 TOTAL OF       1OUTER ITERATIONS
  MAXIMUM CHANGE FOR EACH ITERATION:
   MAX. CHANGE        NODE  MAX. CHANGE        NODE  MAX. CHANGE        NODE  MAX. CHANGE        NODE  MAX. CHANGE        NODE
 ------------------------------------------------------------------------------------------------------------------------------------
  -0.37056    ,       1360
     TRANSPORT SOLUTION COMPLETE FOR COMPONENT SPECIES NUMBER    1
     ------------------------------------------------------------

 TRANSPORT SOLUTION COMPLETE FOR ALL SPECIES, SORTING OUTPUT FOR CONCENTRATIONS AND MASS BALANCE
 ----------------------------------------------------------------------------------------------------
     TRANSPORT OUTPUT FOR COMPONENT SPECIES NUMBER    1
     ------------------------------------------------------------
 -------------------------------------------------------------------------------------
 
 SOLVING FOR HEAD 

 Outer-Iteration  Inner-Iteration  Backtracking  Number of        Incoming       Outgoing      Cutoff     Maximum Head Change      Maximum Head Change
     Number           Count           Flag       Backtracks       Residual       Residual      Residual            Value               Location
        1                             0             0          0.319140E-01     0.319140E-01   -1.00000    
        1               11                                                                                       0.420154E-04               3155           GWF-node number
        2                             0             0          0.113126E-05     0.113126E-05   -1.00000    
        2                3                                                                                       0.434339E-06               3072           GWF-node number
     2 CALLS TO SPARSE MATRIX SOLVER PACKAGE  IN FLOW TIME STEP     204 STRESS PERIOD       2

 TOTAL OF       2OUTER ITERATIONS
  MAXIMUM CHANGE FOR EACH ITERATION:
   MAX. CHANGE        NODE  MAX. CHANGE        NODE  MAX. CHANGE        NODE  MAX. CHANGE        NODE  MAX. CHANGE        NODE
 ------------------------------------------------------------------------------------------------------------------------------------
   0.42015E-04,       3155  0.43434E-06,       3072

 NO OUTPUT CONTROL FOR STRESS PERIOD        2   TIME STEP      204



          TIME SUMMARY AT END OF TIME STEP       204 IN STRESS PERIOD         2
                    SECONDS     MINUTES      HOURS       DAYS        YEARS
                    -----------------------------------------------------------
   TIME STEP LENGTH  86.400      1.4400     2.40000E-02 1.00000E-03 2.73785E-06
 STRESS PERIOD TIME  17626.      293.76      4.8960     0.20400     5.58521E-04
         TOTAL TIME 1.04026E+05  1733.8      28.896      1.2040     3.29637E-03
1
 ------------------------------------------------------------------------------------------------------------
 
 SOLVING FOR TRANSPORT 

          SEQUENTIAL TRANSPORT ITERATION LOOP NUMBER    1
          -----------------------------------------------

 ------------------------------------------------------------------------------------------------------------------------
     1 CALLS TO SPARSE MATRIX SOLVER PACKAGE IN TRANSPORT TIME STEP     204 STRESS PERIOD       2 SPECIES  1

 TOTAL OF       1OUTER ITERATIONS
  MAXIMUM CHANGE FOR EACH ITERATION:
   MAX. CHANGE        NODE  MAX. CHANGE        NODE  MAX. CHANGE        NODE  MAX. CHANGE        NODE  MAX. CHANGE        NODE
 ------------------------------------------------------------------------------------------------------------------------------------
  -0.16659    ,       1279
     TRANSPORT SOLUTION COMPLETE FOR COMPONENT SPECIES NUMBER    1
     ------------------------------------------------------------

 TRANSPORT SOLUTION COMPLETE FOR ALL SPECIES, SORTING OUTPUT FOR CONCENTRATIONS AND MASS BALANCE
 ----------------------------------------------------------------------------------------------------
     TRANSPORT OUTPUT FOR COMPONENT SPECIES NUMBER    1
     ------------------------------------------------------------
 -------------------------------------------------------------------------------------
 
 SOLVING FOR HEAD 

 Outer-Iteration  Inner-Iteration  Backtracking  Number of        Incoming       Outgoing      Cutoff     Maximum Head Change      Maximum Head Change
     Number           Count           Flag       Backtracks       Residual       Residual      Residual            Value               Location
        1                             0             0          0.753329E-02     0.753329E-02   -1.00000    
        1               10                                                                                       0.442281E-04               3155           GWF-node number
        2                             0             0          0.702370E-06     0.702370E-06   -1.00000    
        2                1                                                                                      -0.602406E-06               2534           GWF-node number
     2 CALLS TO SPARSE MATRIX SOLVER PACKAGE  IN FLOW TIME STEP     205 STRESS PERIOD       2

 TOTAL OF       2OUTER ITERATIONS
  MAXIMUM CHANGE FOR EACH ITERATION:
   MAX. CHANGE        NODE  MAX. CHANGE        NODE  MAX. CHANGE        NODE  MAX. CHANGE        NODE  MAX. CHANGE        NODE
 ------------------------------------------------------------------------------------------------------------------------------------
   0.44228E-04,       3155 -0.60241E-06,       2534

 NO OUTPUT CONTROL FOR STRESS PERIOD        2   TIME STEP      205



          TIME SUMMARY AT END OF TIME STEP       205 IN STRESS PERIOD         2
                    SECONDS     MINUTES      HOURS       DAYS        YEARS
                    -----------------------------------------------------------
   TIME STEP LENGTH  86.400      1.4400     2.40000E-02 1.00000E-03 2.73785E-06
 STRESS PERIOD TIME  17712.      295.20      4.9200     0.20500     5.61259E-04
         TOTAL TIME 1.04112E+05  1735.2      28.920      1.2050     3.29911E-03
1
 ------------------------------------------------------------------------------------------------------------
 
 SOLVING FOR TRANSPORT 

          SEQUENTIAL TRANSPORT ITERATION LOOP NUMBER    1
          -----------------------------------------------

 ------------------------------------------------------------------------------------------------------------------------
     1 CALLS TO SPARSE MATRIX SOLVER PACKAGE IN TRANSPORT TIME STEP     205 STRESS PERIOD       2 SPECIES  1

 TOTAL OF       1OUTER ITERATIONS
  MAXIMUM CHANGE FOR EACH ITERATION:
   MAX. CHANGE        NODE  MAX. CHANGE        NODE  MAX. CHANGE        NODE  MAX. CHANGE        NODE  MAX. CHANGE        NODE
 ------------------------------------------------------------------------------------------------------------------------------------
  -0.18856    ,       1200
     TRANSPORT SOLUTION COMPLETE FOR COMPONENT SPECIES NUMBER    1
     ------------------------------------------------------------

 TRANSPORT SOLUTION COMPLETE FOR ALL SPECIES, SORTING OUTPUT FOR CONCENTRATIONS AND MASS BALANCE
 ----------------------------------------------------------------------------------------------------
     TRANSPORT OUTPUT FOR COMPONENT SPECIES NUMBER    1
     ------------------------------------------------------------
 -------------------------------------------------------------------------------------
 
 SOLVING FOR HEAD 

 Outer-Iteration  Inner-Iteration  Backtracking  Number of        Incoming       Outgoing      Cutoff     Maximum Head Change      Maximum Head Change
     Number           Count           Flag       Backtracks       Residual       Residual      Residual            Value               Location
        1                             0             0          0.436667E-02     0.436667E-02   -1.00000    
        1               14                                                                                       0.430166E-04               3155           GWF-node number
        2                             0             0          0.152730E-07     0.152730E-07   -1.00000    
        2                1                                                                                       0.172931E-06               3045           GWF-node number
     2 CALLS TO SPARSE MATRIX SOLVER PACKAGE  IN FLOW TIME STEP     206 STRESS PERIOD       2

 TOTAL OF       2OUTER ITERATIONS
  MAXIMUM CHANGE FOR EACH ITERATION:
   MAX. CHANGE        NODE  MAX. CHANGE        NODE  MAX. CHANGE        NODE  MAX. CHANGE        NODE  MAX. CHANGE        NODE
 ------------------------------------------------------------------------------------------------------------------------------------
   0.43017E-04,       3155  0.17293E-06,       3045

 NO OUTPUT CONTROL FOR STRESS PERIOD        2   TIME STEP      206



          TIME SUMMARY AT END OF TIME STEP       206 IN STRESS PERIOD         2
                    SECONDS     MINUTES      HOURS       DAYS        YEARS
                    -----------------------------------------------------------
   TIME STEP LENGTH  86.400      1.4400     2.40000E-02 1.00000E-03 2.73785E-06
 STRESS PERIOD TIME  17798.      296.64      4.9440     0.20600     5.63997E-04
         TOTAL TIME 1.04198E+05  1736.6      28.944      1.2060     3.30185E-03
1
 ------------------------------------------------------------------------------------------------------------
 
 SOLVING FOR TRANSPORT 

          SEQUENTIAL TRANSPORT ITERATION LOOP NUMBER    1
          -----------------------------------------------

 ------------------------------------------------------------------------------------------------------------------------
     1 CALLS TO SPARSE MATRIX SOLVER PACKAGE IN TRANSPORT TIME STEP     206 STRESS PERIOD       2 SPECIES  1

 TOTAL OF       1OUTER ITERATIONS
  MAXIMUM CHANGE FOR EACH ITERATION:
   MAX. CHANGE        NODE  MAX. CHANGE        NODE  MAX. CHANGE        NODE  MAX. CHANGE        NODE  MAX. CHANGE        NODE
 ------------------------------------------------------------------------------------------------------------------------------------
  -0.25964    ,       1200
     TRANSPORT SOLUTION COMPLETE FOR COMPONENT SPECIES NUMBER    1
     ------------------------------------------------------------

 TRANSPORT SOLUTION COMPLETE FOR ALL SPECIES, SORTING OUTPUT FOR CONCENTRATIONS AND MASS BALANCE
 ----------------------------------------------------------------------------------------------------
     TRANSPORT OUTPUT FOR COMPONENT SPECIES NUMBER    1
     ------------------------------------------------------------
 -------------------------------------------------------------------------------------
 
 SOLVING FOR HEAD 

 Outer-Iteration  Inner-Iteration  Backtracking  Number of        Incoming       Outgoing      Cutoff     Maximum Head Change      Maximum Head Change
     Number           Count           Flag       Backtracks       Residual       Residual      Residual            Value               Location
        1                             0             0          0.104896E-01     0.104896E-01   -1.00000    
        1               10                                                                                       0.432527E-04               3155           GWF-node number
        2                             0             0          0.574785E-06     0.574785E-06   -1.00000    
        2                1                                                                                      -0.896004E-06               3054           GWF-node number
     2 CALLS TO SPARSE MATRIX SOLVER PACKAGE  IN FLOW TIME STEP     207 STRESS PERIOD       2

 TOTAL OF       2OUTER ITERATIONS
  MAXIMUM CHANGE FOR EACH ITERATION:
   MAX. CHANGE        NODE  MAX. CHANGE        NODE  MAX. CHANGE        NODE  MAX. CHANGE        NODE  MAX. CHANGE        NODE
 ------------------------------------------------------------------------------------------------------------------------------------
   0.43253E-04,       3155 -0.89600E-06,       3054

 NO OUTPUT CONTROL FOR STRESS PERIOD        2   TIME STEP      207



          TIME SUMMARY AT END OF TIME STEP       207 IN STRESS PERIOD         2
                    SECONDS     MINUTES      HOURS       DAYS        YEARS
                    -----------------------------------------------------------
   TIME STEP LENGTH  86.400      1.4400     2.40000E-02 1.00000E-03 2.73785E-06
 STRESS PERIOD TIME  17885.      298.08      4.9680     0.20700     5.66735E-04
         TOTAL TIME 1.04285E+05  1738.1      28.968      1.2070     3.30459E-03
1
 ------------------------------------------------------------------------------------------------------------
 
 SOLVING FOR TRANSPORT 

          SEQUENTIAL TRANSPORT ITERATION LOOP NUMBER    1
          -----------------------------------------------

 ------------------------------------------------------------------------------------------------------------------------
     1 CALLS TO SPARSE MATRIX SOLVER PACKAGE IN TRANSPORT TIME STEP     207 STRESS PERIOD       2 SPECIES  1

 TOTAL OF       1OUTER ITERATIONS
  MAXIMUM CHANGE FOR EACH ITERATION:
   MAX. CHANGE        NODE  MAX. CHANGE        NODE  MAX. CHANGE        NODE  MAX. CHANGE        NODE  MAX. CHANGE        NODE
 ------------------------------------------------------------------------------------------------------------------------------------
  -0.31714    ,       1200
     TRANSPORT SOLUTION COMPLETE FOR COMPONENT SPECIES NUMBER    1
     ------------------------------------------------------------

 TRANSPORT SOLUTION COMPLETE FOR ALL SPECIES, SORTING OUTPUT FOR CONCENTRATIONS AND MASS BALANCE
 ----------------------------------------------------------------------------------------------------
     TRANSPORT OUTPUT FOR COMPONENT SPECIES NUMBER    1
     ------------------------------------------------------------
 -------------------------------------------------------------------------------------
 
 SOLVING FOR HEAD 

 Outer-Iteration  Inner-Iteration  Backtracking  Number of        Incoming       Outgoing      Cutoff     Maximum Head Change      Maximum Head Change
     Number           Count           Flag       Backtracks       Residual       Residual      Residual            Value               Location
        1                             0             0          0.203985E-01     0.203985E-01   -1.00000    
        1               13                                                                                       0.404384E-04               3155           GWF-node number
        2                             0             0          0.784036E-07     0.784036E-07   -1.00000    
        2                1                                                                                      -0.561595E-06               3124           GWF-node number
     2 CALLS TO SPARSE MATRIX SOLVER PACKAGE  IN FLOW TIME STEP     208 STRESS PERIOD       2

 TOTAL OF       2OUTER ITERATIONS
  MAXIMUM CHANGE FOR EACH ITERATION:
   MAX. CHANGE        NODE  MAX. CHANGE        NODE  MAX. CHANGE        NODE  MAX. CHANGE        NODE  MAX. CHANGE        NODE
 ------------------------------------------------------------------------------------------------------------------------------------
   0.40438E-04,       3155 -0.56160E-06,       3124

 NO OUTPUT CONTROL FOR STRESS PERIOD        2   TIME STEP      208



          TIME SUMMARY AT END OF TIME STEP       208 IN STRESS PERIOD         2
                    SECONDS     MINUTES      HOURS       DAYS        YEARS
                    -----------------------------------------------------------
   TIME STEP LENGTH  86.400      1.4400     2.40000E-02 1.00000E-03 2.73785E-06
 STRESS PERIOD TIME  17971.      299.52      4.9920     0.20800     5.69473E-04
         TOTAL TIME 1.04371E+05  1739.5      28.992      1.2080     3.30732E-03
1
 ------------------------------------------------------------------------------------------------------------
 
 SOLVING FOR TRANSPORT 

          SEQUENTIAL TRANSPORT ITERATION LOOP NUMBER    1
          -----------------------------------------------

 ------------------------------------------------------------------------------------------------------------------------
     1 CALLS TO SPARSE MATRIX SOLVER PACKAGE IN TRANSPORT TIME STEP     208 STRESS PERIOD       2 SPECIES  1

 TOTAL OF       1OUTER ITERATIONS
  MAXIMUM CHANGE FOR EACH ITERATION:
   MAX. CHANGE        NODE  MAX. CHANGE        NODE  MAX. CHANGE        NODE  MAX. CHANGE        NODE  MAX. CHANGE        NODE
 ------------------------------------------------------------------------------------------------------------------------------------
  -0.18961    ,       1280
     TRANSPORT SOLUTION COMPLETE FOR COMPONENT SPECIES NUMBER    1
     ------------------------------------------------------------

 TRANSPORT SOLUTION COMPLETE FOR ALL SPECIES, SORTING OUTPUT FOR CONCENTRATIONS AND MASS BALANCE
 ----------------------------------------------------------------------------------------------------
     TRANSPORT OUTPUT FOR COMPONENT SPECIES NUMBER    1
     ------------------------------------------------------------
 -------------------------------------------------------------------------------------
 
 SOLVING FOR HEAD 

 Outer-Iteration  Inner-Iteration  Backtracking  Number of        Incoming       Outgoing      Cutoff     Maximum Head Change      Maximum Head Change
     Number           Count           Flag       Backtracks       Residual       Residual      Residual            Value               Location
        1                             0             0          0.197154E-01     0.197154E-01   -1.00000    
        1               12                                                                                       0.404915E-04               3155           GWF-node number
        2                             0             0          0.564919E-06     0.564919E-06   -1.00000    
        2                1                                                                                       0.687512E-06               3067           GWF-node number
     2 CALLS TO SPARSE MATRIX SOLVER PACKAGE  IN FLOW TIME STEP     209 STRESS PERIOD       2

 TOTAL OF       2OUTER ITERATIONS
  MAXIMUM CHANGE FOR EACH ITERATION:
   MAX. CHANGE        NODE  MAX. CHANGE        NODE  MAX. CHANGE        NODE  MAX. CHANGE        NODE  MAX. CHANGE        NODE
 ------------------------------------------------------------------------------------------------------------------------------------
   0.40491E-04,       3155  0.68751E-06,       3067

 NO OUTPUT CONTROL FOR STRESS PERIOD        2   TIME STEP      209



          TIME SUMMARY AT END OF TIME STEP       209 IN STRESS PERIOD         2
                    SECONDS     MINUTES      HOURS       DAYS        YEARS
                    -----------------------------------------------------------
   TIME STEP LENGTH  86.400      1.4400     2.40000E-02 1.00000E-03 2.73785E-06
 STRESS PERIOD TIME  18058.      300.96      5.0160     0.20900     5.72211E-04
         TOTAL TIME 1.04458E+05  1741.0      29.016      1.2090     3.31006E-03
1
 ------------------------------------------------------------------------------------------------------------
 
 SOLVING FOR TRANSPORT 

          SEQUENTIAL TRANSPORT ITERATION LOOP NUMBER    1
          -----------------------------------------------

 ------------------------------------------------------------------------------------------------------------------------
     1 CALLS TO SPARSE MATRIX SOLVER PACKAGE IN TRANSPORT TIME STEP     209 STRESS PERIOD       2 SPECIES  1

 TOTAL OF       1OUTER ITERATIONS
  MAXIMUM CHANGE FOR EACH ITERATION:
   MAX. CHANGE        NODE  MAX. CHANGE        NODE  MAX. CHANGE        NODE  MAX. CHANGE        NODE  MAX. CHANGE        NODE
 ------------------------------------------------------------------------------------------------------------------------------------
   0.23407    ,       1520
     TRANSPORT SOLUTION COMPLETE FOR COMPONENT SPECIES NUMBER    1
     ------------------------------------------------------------

 TRANSPORT SOLUTION COMPLETE FOR ALL SPECIES, SORTING OUTPUT FOR CONCENTRATIONS AND MASS BALANCE
 ----------------------------------------------------------------------------------------------------
     TRANSPORT OUTPUT FOR COMPONENT SPECIES NUMBER    1
     ------------------------------------------------------------
 -------------------------------------------------------------------------------------
 
 SOLVING FOR HEAD 

 Outer-Iteration  Inner-Iteration  Backtracking  Number of        Incoming       Outgoing      Cutoff     Maximum Head Change      Maximum Head Change
     Number           Count           Flag       Backtracks       Residual       Residual      Residual            Value               Location
        1                             0             0          0.271899E-01     0.271899E-01   -1.00000    
        1               11                                                                                       0.406569E-04               3155           GWF-node number
        2                             0             0          0.196370E-05     0.196370E-05   -1.00000    
        2                3                                                                                       0.814166E-06               2046           GWF-node number
     2 CALLS TO SPARSE MATRIX SOLVER PACKAGE  IN FLOW TIME STEP     210 STRESS PERIOD       2

 TOTAL OF       2OUTER ITERATIONS
  MAXIMUM CHANGE FOR EACH ITERATION:
   MAX. CHANGE        NODE  MAX. CHANGE        NODE  MAX. CHANGE        NODE  MAX. CHANGE        NODE  MAX. CHANGE        NODE
 ------------------------------------------------------------------------------------------------------------------------------------
   0.40657E-04,       3155  0.81417E-06,       2046

 NO OUTPUT CONTROL FOR STRESS PERIOD        2   TIME STEP      210



          TIME SUMMARY AT END OF TIME STEP       210 IN STRESS PERIOD         2
                    SECONDS     MINUTES      HOURS       DAYS        YEARS
                    -----------------------------------------------------------
   TIME STEP LENGTH  86.400      1.4400     2.40000E-02 1.00000E-03 2.73785E-06
 STRESS PERIOD TIME  18144.      302.40      5.0400     0.21000     5.74949E-04
         TOTAL TIME 1.04544E+05  1742.4      29.040      1.2100     3.31280E-03
1
 ------------------------------------------------------------------------------------------------------------
 
 SOLVING FOR TRANSPORT 

          SEQUENTIAL TRANSPORT ITERATION LOOP NUMBER    1
          -----------------------------------------------

 ------------------------------------------------------------------------------------------------------------------------
     1 CALLS TO SPARSE MATRIX SOLVER PACKAGE IN TRANSPORT TIME STEP     210 STRESS PERIOD       2 SPECIES  1

 TOTAL OF       1OUTER ITERATIONS
  MAXIMUM CHANGE FOR EACH ITERATION:
   MAX. CHANGE        NODE  MAX. CHANGE        NODE  MAX. CHANGE        NODE  MAX. CHANGE        NODE  MAX. CHANGE        NODE
 ------------------------------------------------------------------------------------------------------------------------------------
   0.24621    ,       1520
     TRANSPORT SOLUTION COMPLETE FOR COMPONENT SPECIES NUMBER    1
     ------------------------------------------------------------

 TRANSPORT SOLUTION COMPLETE FOR ALL SPECIES, SORTING OUTPUT FOR CONCENTRATIONS AND MASS BALANCE
 ----------------------------------------------------------------------------------------------------
     TRANSPORT OUTPUT FOR COMPONENT SPECIES NUMBER    1
     ------------------------------------------------------------
 -------------------------------------------------------------------------------------
 
 SOLVING FOR HEAD 

 Outer-Iteration  Inner-Iteration  Backtracking  Number of        Incoming       Outgoing      Cutoff     Maximum Head Change      Maximum Head Change
     Number           Count           Flag       Backtracks       Residual       Residual      Residual            Value               Location
        1                             0             0          0.352206E-01     0.352206E-01   -1.00000    
        1               13                                                                                       0.396518E-04               3155           GWF-node number
        2                             0             0          0.166039E-06     0.166039E-06   -1.00000    
        2                1                                                                                       0.296283E-06               2993           GWF-node number
     2 CALLS TO SPARSE MATRIX SOLVER PACKAGE  IN FLOW TIME STEP     211 STRESS PERIOD       2

 TOTAL OF       2OUTER ITERATIONS
  MAXIMUM CHANGE FOR EACH ITERATION:
   MAX. CHANGE        NODE  MAX. CHANGE        NODE  MAX. CHANGE        NODE  MAX. CHANGE        NODE  MAX. CHANGE        NODE
 ------------------------------------------------------------------------------------------------------------------------------------
   0.39652E-04,       3155  0.29628E-06,       2993

 NO OUTPUT CONTROL FOR STRESS PERIOD        2   TIME STEP      211



          TIME SUMMARY AT END OF TIME STEP       211 IN STRESS PERIOD         2
                    SECONDS     MINUTES      HOURS       DAYS        YEARS
                    -----------------------------------------------------------
   TIME STEP LENGTH  86.400      1.4400     2.40000E-02 1.00000E-03 2.73785E-06
 STRESS PERIOD TIME  18230.      303.84      5.0640     0.21100     5.77687E-04
         TOTAL TIME 1.04630E+05  1743.8      29.064      1.2110     3.31554E-03
1
 ------------------------------------------------------------------------------------------------------------
 
 SOLVING FOR TRANSPORT 

          SEQUENTIAL TRANSPORT ITERATION LOOP NUMBER    1
          -----------------------------------------------

 ------------------------------------------------------------------------------------------------------------------------
     1 CALLS TO SPARSE MATRIX SOLVER PACKAGE IN TRANSPORT TIME STEP     211 STRESS PERIOD       2 SPECIES  1

 TOTAL OF       1OUTER ITERATIONS
  MAXIMUM CHANGE FOR EACH ITERATION:
   MAX. CHANGE        NODE  MAX. CHANGE        NODE  MAX. CHANGE        NODE  MAX. CHANGE        NODE  MAX. CHANGE        NODE
 ------------------------------------------------------------------------------------------------------------------------------------
   0.28759    ,       1440
     TRANSPORT SOLUTION COMPLETE FOR COMPONENT SPECIES NUMBER    1
     ------------------------------------------------------------

 TRANSPORT SOLUTION COMPLETE FOR ALL SPECIES, SORTING OUTPUT FOR CONCENTRATIONS AND MASS BALANCE
 ----------------------------------------------------------------------------------------------------
     TRANSPORT OUTPUT FOR COMPONENT SPECIES NUMBER    1
     ------------------------------------------------------------
 -------------------------------------------------------------------------------------
 
 SOLVING FOR HEAD 

 Outer-Iteration  Inner-Iteration  Backtracking  Number of        Incoming       Outgoing      Cutoff     Maximum Head Change      Maximum Head Change
     Number           Count           Flag       Backtracks       Residual       Residual      Residual            Value               Location
        1                             0             0          0.141197E-01     0.141197E-01   -1.00000    
        1               12                                                                                       0.425399E-04               3155           GWF-node number
        2                             0             0          0.249907E-06     0.249907E-06   -1.00000    
        2                1                                                                                       0.256775E-06               2481           GWF-node number
     2 CALLS TO SPARSE MATRIX SOLVER PACKAGE  IN FLOW TIME STEP     212 STRESS PERIOD       2

 TOTAL OF       2OUTER ITERATIONS
  MAXIMUM CHANGE FOR EACH ITERATION:
   MAX. CHANGE        NODE  MAX. CHANGE        NODE  MAX. CHANGE        NODE  MAX. CHANGE        NODE  MAX. CHANGE        NODE
 ------------------------------------------------------------------------------------------------------------------------------------
   0.42540E-04,       3155  0.25677E-06,       2481

 NO OUTPUT CONTROL FOR STRESS PERIOD        2   TIME STEP      212



          TIME SUMMARY AT END OF TIME STEP       212 IN STRESS PERIOD         2
                    SECONDS     MINUTES      HOURS       DAYS        YEARS
                    -----------------------------------------------------------
   TIME STEP LENGTH  86.400      1.4400     2.40000E-02 1.00000E-03 2.73785E-06
 STRESS PERIOD TIME  18317.      305.28      5.0880     0.21200     5.80424E-04
         TOTAL TIME 1.04717E+05  1745.3      29.088      1.2120     3.31828E-03
1
 ------------------------------------------------------------------------------------------------------------
 
 SOLVING FOR TRANSPORT 

          SEQUENTIAL TRANSPORT ITERATION LOOP NUMBER    1
          -----------------------------------------------

 ------------------------------------------------------------------------------------------------------------------------
     1 CALLS TO SPARSE MATRIX SOLVER PACKAGE IN TRANSPORT TIME STEP     212 STRESS PERIOD       2 SPECIES  1

 TOTAL OF       1OUTER ITERATIONS
  MAXIMUM CHANGE FOR EACH ITERATION:
   MAX. CHANGE        NODE  MAX. CHANGE        NODE  MAX. CHANGE        NODE  MAX. CHANGE        NODE  MAX. CHANGE        NODE
 ------------------------------------------------------------------------------------------------------------------------------------
   0.32864    ,       1440
     TRANSPORT SOLUTION COMPLETE FOR COMPONENT SPECIES NUMBER    1
     ------------------------------------------------------------

 TRANSPORT SOLUTION COMPLETE FOR ALL SPECIES, SORTING OUTPUT FOR CONCENTRATIONS AND MASS BALANCE
 ----------------------------------------------------------------------------------------------------
     TRANSPORT OUTPUT FOR COMPONENT SPECIES NUMBER    1
     ------------------------------------------------------------
 -------------------------------------------------------------------------------------
 
 SOLVING FOR HEAD 

 Outer-Iteration  Inner-Iteration  Backtracking  Number of        Incoming       Outgoing      Cutoff     Maximum Head Change      Maximum Head Change
     Number           Count           Flag       Backtracks       Residual       Residual      Residual            Value               Location
        1                             0             0          0.720264E-02     0.720264E-02   -1.00000    
        1               10                                                                                       0.458607E-04               3155           GWF-node number
        2                             0             0          0.134048E-05     0.134048E-05   -1.00000    
        2                2                                                                                       0.145981E-05               3124           GWF-node number
     2 CALLS TO SPARSE MATRIX SOLVER PACKAGE  IN FLOW TIME STEP     213 STRESS PERIOD       2

 TOTAL OF       2OUTER ITERATIONS
  MAXIMUM CHANGE FOR EACH ITERATION:
   MAX. CHANGE        NODE  MAX. CHANGE        NODE  MAX. CHANGE        NODE  MAX. CHANGE        NODE  MAX. CHANGE        NODE
 ------------------------------------------------------------------------------------------------------------------------------------
   0.45861E-04,       3155  0.14598E-05,       3124

 NO OUTPUT CONTROL FOR STRESS PERIOD        2   TIME STEP      213



          TIME SUMMARY AT END OF TIME STEP       213 IN STRESS PERIOD         2
                    SECONDS     MINUTES      HOURS       DAYS        YEARS
                    -----------------------------------------------------------
   TIME STEP LENGTH  86.400      1.4400     2.40000E-02 1.00000E-03 2.73785E-06
 STRESS PERIOD TIME  18403.      306.72      5.1120     0.21300     5.83162E-04
         TOTAL TIME 1.04803E+05  1746.7      29.112      1.2130     3.32101E-03
1
 ------------------------------------------------------------------------------------------------------------
 
 SOLVING FOR TRANSPORT 

          SEQUENTIAL TRANSPORT ITERATION LOOP NUMBER    1
          -----------------------------------------------

 ------------------------------------------------------------------------------------------------------------------------
     1 CALLS TO SPARSE MATRIX SOLVER PACKAGE IN TRANSPORT TIME STEP     213 STRESS PERIOD       2 SPECIES  1

 TOTAL OF       1OUTER ITERATIONS
  MAXIMUM CHANGE FOR EACH ITERATION:
   MAX. CHANGE        NODE  MAX. CHANGE        NODE  MAX. CHANGE        NODE  MAX. CHANGE        NODE  MAX. CHANGE        NODE
 ------------------------------------------------------------------------------------------------------------------------------------
   0.35023    ,       1360
     TRANSPORT SOLUTION COMPLETE FOR COMPONENT SPECIES NUMBER    1
     ------------------------------------------------------------

 TRANSPORT SOLUTION COMPLETE FOR ALL SPECIES, SORTING OUTPUT FOR CONCENTRATIONS AND MASS BALANCE
 ----------------------------------------------------------------------------------------------------
     TRANSPORT OUTPUT FOR COMPONENT SPECIES NUMBER    1
     ------------------------------------------------------------
 -------------------------------------------------------------------------------------
 
 SOLVING FOR HEAD 

 Outer-Iteration  Inner-Iteration  Backtracking  Number of        Incoming       Outgoing      Cutoff     Maximum Head Change      Maximum Head Change
     Number           Count           Flag       Backtracks       Residual       Residual      Residual            Value               Location
        1                             0             0          0.711635E-02     0.711635E-02   -1.00000    
        1               12                                                                                       0.462938E-04               3155           GWF-node number
        2                             0             0          0.579937E-07     0.579937E-07   -1.00000    
        2                1                                                                                       0.214140E-06                172           GWF-node number
     2 CALLS TO SPARSE MATRIX SOLVER PACKAGE  IN FLOW TIME STEP     214 STRESS PERIOD       2

 TOTAL OF       2OUTER ITERATIONS
  MAXIMUM CHANGE FOR EACH ITERATION:
   MAX. CHANGE        NODE  MAX. CHANGE        NODE  MAX. CHANGE        NODE  MAX. CHANGE        NODE  MAX. CHANGE        NODE
 ------------------------------------------------------------------------------------------------------------------------------------
   0.46294E-04,       3155  0.21414E-06,        172

 NO OUTPUT CONTROL FOR STRESS PERIOD        2   TIME STEP      214



          TIME SUMMARY AT END OF TIME STEP       214 IN STRESS PERIOD         2
                    SECONDS     MINUTES      HOURS       DAYS        YEARS
                    -----------------------------------------------------------
   TIME STEP LENGTH  86.400      1.4400     2.40000E-02 1.00000E-03 2.73785E-06
 STRESS PERIOD TIME  18490.      308.16      5.1360     0.21400     5.85900E-04
         TOTAL TIME 1.04890E+05  1748.2      29.136      1.2140     3.32375E-03
1
 ------------------------------------------------------------------------------------------------------------
 
 SOLVING FOR TRANSPORT 

          SEQUENTIAL TRANSPORT ITERATION LOOP NUMBER    1
          -----------------------------------------------

 ------------------------------------------------------------------------------------------------------------------------
     1 CALLS TO SPARSE MATRIX SOLVER PACKAGE IN TRANSPORT TIME STEP     214 STRESS PERIOD       2 SPECIES  1

 TOTAL OF       1OUTER ITERATIONS
  MAXIMUM CHANGE FOR EACH ITERATION:
   MAX. CHANGE        NODE  MAX. CHANGE        NODE  MAX. CHANGE        NODE  MAX. CHANGE        NODE  MAX. CHANGE        NODE
 ------------------------------------------------------------------------------------------------------------------------------------
   0.36816    ,       1360
     TRANSPORT SOLUTION COMPLETE FOR COMPONENT SPECIES NUMBER    1
     ------------------------------------------------------------

 TRANSPORT SOLUTION COMPLETE FOR ALL SPECIES, SORTING OUTPUT FOR CONCENTRATIONS AND MASS BALANCE
 ----------------------------------------------------------------------------------------------------
     TRANSPORT OUTPUT FOR COMPONENT SPECIES NUMBER    1
     ------------------------------------------------------------
 -------------------------------------------------------------------------------------
 
 SOLVING FOR HEAD 

 Outer-Iteration  Inner-Iteration  Backtracking  Number of        Incoming       Outgoing      Cutoff     Maximum Head Change      Maximum Head Change
     Number           Count           Flag       Backtracks       Residual       Residual      Residual            Value               Location
        1                             0             0          0.777842E-02     0.777842E-02   -1.00000    
        1               11                                                                                       0.471503E-04               3155           GWF-node number
        2                             0             0          0.326967E-06     0.326967E-06   -1.00000    
        2                1                                                                                       0.390542E-06               1124           GWF-node number
     2 CALLS TO SPARSE MATRIX SOLVER PACKAGE  IN FLOW TIME STEP     215 STRESS PERIOD       2

 TOTAL OF       2OUTER ITERATIONS
  MAXIMUM CHANGE FOR EACH ITERATION:
   MAX. CHANGE        NODE  MAX. CHANGE        NODE  MAX. CHANGE        NODE  MAX. CHANGE        NODE  MAX. CHANGE        NODE
 ------------------------------------------------------------------------------------------------------------------------------------
   0.47150E-04,       3155  0.39054E-06,       1124

 NO OUTPUT CONTROL FOR STRESS PERIOD        2   TIME STEP      215



          TIME SUMMARY AT END OF TIME STEP       215 IN STRESS PERIOD         2
                    SECONDS     MINUTES      HOURS       DAYS        YEARS
                    -----------------------------------------------------------
   TIME STEP LENGTH  86.400      1.4400     2.40000E-02 1.00000E-03 2.73785E-06
 STRESS PERIOD TIME  18576.      309.60      5.1600     0.21500     5.88638E-04
         TOTAL TIME 1.04976E+05  1749.6      29.160      1.2150     3.32649E-03
1
 ------------------------------------------------------------------------------------------------------------
 
 SOLVING FOR TRANSPORT 

          SEQUENTIAL TRANSPORT ITERATION LOOP NUMBER    1
          -----------------------------------------------

 ------------------------------------------------------------------------------------------------------------------------
     1 CALLS TO SPARSE MATRIX SOLVER PACKAGE IN TRANSPORT TIME STEP     215 STRESS PERIOD       2 SPECIES  1

 TOTAL OF       1OUTER ITERATIONS
  MAXIMUM CHANGE FOR EACH ITERATION:
   MAX. CHANGE        NODE  MAX. CHANGE        NODE  MAX. CHANGE        NODE  MAX. CHANGE        NODE  MAX. CHANGE        NODE
 ------------------------------------------------------------------------------------------------------------------------------------
   0.31228    ,       1280
     TRANSPORT SOLUTION COMPLETE FOR COMPONENT SPECIES NUMBER    1
     ------------------------------------------------------------

 TRANSPORT SOLUTION COMPLETE FOR ALL SPECIES, SORTING OUTPUT FOR CONCENTRATIONS AND MASS BALANCE
 ----------------------------------------------------------------------------------------------------
     TRANSPORT OUTPUT FOR COMPONENT SPECIES NUMBER    1
     ------------------------------------------------------------
 -------------------------------------------------------------------------------------
 
 SOLVING FOR HEAD 

 Outer-Iteration  Inner-Iteration  Backtracking  Number of        Incoming       Outgoing      Cutoff     Maximum Head Change      Maximum Head Change
     Number           Count           Flag       Backtracks       Residual       Residual      Residual            Value               Location
        1                             0             0          0.626384E-02     0.626384E-02   -1.00000    
        1               11                                                                                       0.448072E-04               3155           GWF-node number
        2                             0             0          0.212939E-06     0.212939E-06   -1.00000    
        2                1                                                                                      -0.495197E-06               3041           GWF-node number
     2 CALLS TO SPARSE MATRIX SOLVER PACKAGE  IN FLOW TIME STEP     216 STRESS PERIOD       2

 TOTAL OF       2OUTER ITERATIONS
  MAXIMUM CHANGE FOR EACH ITERATION:
   MAX. CHANGE        NODE  MAX. CHANGE        NODE  MAX. CHANGE        NODE  MAX. CHANGE        NODE  MAX. CHANGE        NODE
 ------------------------------------------------------------------------------------------------------------------------------------
   0.44807E-04,       3155 -0.49520E-06,       3041

 NO OUTPUT CONTROL FOR STRESS PERIOD        2   TIME STEP      216



          TIME SUMMARY AT END OF TIME STEP       216 IN STRESS PERIOD         2
                    SECONDS     MINUTES      HOURS       DAYS        YEARS
                    -----------------------------------------------------------
   TIME STEP LENGTH  86.400      1.4400     2.40000E-02 1.00000E-03 2.73785E-06
 STRESS PERIOD TIME  18662.      311.04      5.1840     0.21600     5.91376E-04
         TOTAL TIME 1.05062E+05  1751.0      29.184      1.2160     3.32923E-03
1
 ------------------------------------------------------------------------------------------------------------
 
 SOLVING FOR TRANSPORT 

          SEQUENTIAL TRANSPORT ITERATION LOOP NUMBER    1
          -----------------------------------------------

 ------------------------------------------------------------------------------------------------------------------------
     1 CALLS TO SPARSE MATRIX SOLVER PACKAGE IN TRANSPORT TIME STEP     216 STRESS PERIOD       2 SPECIES  1

 TOTAL OF       1OUTER ITERATIONS
  MAXIMUM CHANGE FOR EACH ITERATION:
   MAX. CHANGE        NODE  MAX. CHANGE        NODE  MAX. CHANGE        NODE  MAX. CHANGE        NODE  MAX. CHANGE        NODE
 ------------------------------------------------------------------------------------------------------------------------------------
   0.31291    ,       1280
     TRANSPORT SOLUTION COMPLETE FOR COMPONENT SPECIES NUMBER    1
     ------------------------------------------------------------

 TRANSPORT SOLUTION COMPLETE FOR ALL SPECIES, SORTING OUTPUT FOR CONCENTRATIONS AND MASS BALANCE
 ----------------------------------------------------------------------------------------------------
     TRANSPORT OUTPUT FOR COMPONENT SPECIES NUMBER    1
     ------------------------------------------------------------
 -------------------------------------------------------------------------------------
 
 SOLVING FOR HEAD 

 Outer-Iteration  Inner-Iteration  Backtracking  Number of        Incoming       Outgoing      Cutoff     Maximum Head Change      Maximum Head Change
     Number           Count           Flag       Backtracks       Residual       Residual      Residual            Value               Location
        1                             0             0          0.545834E-02     0.545834E-02   -1.00000    
        1               11                                                                                       0.422841E-04               3155           GWF-node number
        2                             0             0          0.336534E-06     0.336534E-06   -1.00000    
        2                1                                                                                       0.244581E-06               1478           GWF-node number
     2 CALLS TO SPARSE MATRIX SOLVER PACKAGE  IN FLOW TIME STEP     217 STRESS PERIOD       2

 TOTAL OF       2OUTER ITERATIONS
  MAXIMUM CHANGE FOR EACH ITERATION:
   MAX. CHANGE        NODE  MAX. CHANGE        NODE  MAX. CHANGE        NODE  MAX. CHANGE        NODE  MAX. CHANGE        NODE
 ------------------------------------------------------------------------------------------------------------------------------------
   0.42284E-04,       3155  0.24458E-06,       1478

 NO OUTPUT CONTROL FOR STRESS PERIOD        2   TIME STEP      217



          TIME SUMMARY AT END OF TIME STEP       217 IN STRESS PERIOD         2
                    SECONDS     MINUTES      HOURS       DAYS        YEARS
                    -----------------------------------------------------------
   TIME STEP LENGTH  86.400      1.4400     2.40000E-02 1.00000E-03 2.73785E-06
 STRESS PERIOD TIME  18749.      312.48      5.2080     0.21700     5.94114E-04
         TOTAL TIME 1.05149E+05  1752.5      29.208      1.2170     3.33196E-03
1
 ------------------------------------------------------------------------------------------------------------
 
 SOLVING FOR TRANSPORT 

          SEQUENTIAL TRANSPORT ITERATION LOOP NUMBER    1
          -----------------------------------------------

 ------------------------------------------------------------------------------------------------------------------------
     1 CALLS TO SPARSE MATRIX SOLVER PACKAGE IN TRANSPORT TIME STEP     217 STRESS PERIOD       2 SPECIES  1

 TOTAL OF       1OUTER ITERATIONS
  MAXIMUM CHANGE FOR EACH ITERATION:
   MAX. CHANGE        NODE  MAX. CHANGE        NODE  MAX. CHANGE        NODE  MAX. CHANGE        NODE  MAX. CHANGE        NODE
 ------------------------------------------------------------------------------------------------------------------------------------
   0.28896    ,       1280
     TRANSPORT SOLUTION COMPLETE FOR COMPONENT SPECIES NUMBER    1
     ------------------------------------------------------------

 TRANSPORT SOLUTION COMPLETE FOR ALL SPECIES, SORTING OUTPUT FOR CONCENTRATIONS AND MASS BALANCE
 ----------------------------------------------------------------------------------------------------
     TRANSPORT OUTPUT FOR COMPONENT SPECIES NUMBER    1
     ------------------------------------------------------------
 -------------------------------------------------------------------------------------
 
 SOLVING FOR HEAD 

 Outer-Iteration  Inner-Iteration  Backtracking  Number of        Incoming       Outgoing      Cutoff     Maximum Head Change      Maximum Head Change
     Number           Count           Flag       Backtracks       Residual       Residual      Residual            Value               Location
        1                             0             0          0.654762E-02     0.654762E-02   -1.00000    
        1               11                                                                                       0.394004E-04               3155           GWF-node number
        2                             0             0          0.244509E-06     0.244509E-06   -1.00000    
        2                1                                                                                       0.534562E-06               2802           GWF-node number
     2 CALLS TO SPARSE MATRIX SOLVER PACKAGE  IN FLOW TIME STEP     218 STRESS PERIOD       2

 TOTAL OF       2OUTER ITERATIONS
  MAXIMUM CHANGE FOR EACH ITERATION:
   MAX. CHANGE        NODE  MAX. CHANGE        NODE  MAX. CHANGE        NODE  MAX. CHANGE        NODE  MAX. CHANGE        NODE
 ------------------------------------------------------------------------------------------------------------------------------------
   0.39400E-04,       3155  0.53456E-06,       2802

 NO OUTPUT CONTROL FOR STRESS PERIOD        2   TIME STEP      218



          TIME SUMMARY AT END OF TIME STEP       218 IN STRESS PERIOD         2
                    SECONDS     MINUTES      HOURS       DAYS        YEARS
                    -----------------------------------------------------------
   TIME STEP LENGTH  86.400      1.4400     2.40000E-02 1.00000E-03 2.73785E-06
 STRESS PERIOD TIME  18835.      313.92      5.2320     0.21800     5.96851E-04
         TOTAL TIME 1.05235E+05  1753.9      29.232      1.2180     3.33470E-03
1
 ------------------------------------------------------------------------------------------------------------
 
 SOLVING FOR TRANSPORT 

          SEQUENTIAL TRANSPORT ITERATION LOOP NUMBER    1
          -----------------------------------------------

 ------------------------------------------------------------------------------------------------------------------------
     1 CALLS TO SPARSE MATRIX SOLVER PACKAGE IN TRANSPORT TIME STEP     218 STRESS PERIOD       2 SPECIES  1

 TOTAL OF       1OUTER ITERATIONS
  MAXIMUM CHANGE FOR EACH ITERATION:
   MAX. CHANGE        NODE  MAX. CHANGE        NODE  MAX. CHANGE        NODE  MAX. CHANGE        NODE  MAX. CHANGE        NODE
 ------------------------------------------------------------------------------------------------------------------------------------
   0.23475    ,       1120
     TRANSPORT SOLUTION COMPLETE FOR COMPONENT SPECIES NUMBER    1
     ------------------------------------------------------------

 TRANSPORT SOLUTION COMPLETE FOR ALL SPECIES, SORTING OUTPUT FOR CONCENTRATIONS AND MASS BALANCE
 ----------------------------------------------------------------------------------------------------
     TRANSPORT OUTPUT FOR COMPONENT SPECIES NUMBER    1
     ------------------------------------------------------------
 -------------------------------------------------------------------------------------
 
 SOLVING FOR HEAD 

 Outer-Iteration  Inner-Iteration  Backtracking  Number of        Incoming       Outgoing      Cutoff     Maximum Head Change      Maximum Head Change
     Number           Count           Flag       Backtracks       Residual       Residual      Residual            Value               Location
        1                             0             0          0.566144E-02     0.566144E-02   -1.00000    
        1                9                                                                                       0.382230E-04               3156           GWF-node number
        2                             0             0          0.196211E-05     0.196211E-05   -1.00000    
        2                2                                                                                      -0.289888E-05               2801           GWF-node number
     2 CALLS TO SPARSE MATRIX SOLVER PACKAGE  IN FLOW TIME STEP     219 STRESS PERIOD       2

 TOTAL OF       2OUTER ITERATIONS
  MAXIMUM CHANGE FOR EACH ITERATION:
   MAX. CHANGE        NODE  MAX. CHANGE        NODE  MAX. CHANGE        NODE  MAX. CHANGE        NODE  MAX. CHANGE        NODE
 ------------------------------------------------------------------------------------------------------------------------------------
   0.38223E-04,       3156 -0.28989E-05,       2801

 NO OUTPUT CONTROL FOR STRESS PERIOD        2   TIME STEP      219



          TIME SUMMARY AT END OF TIME STEP       219 IN STRESS PERIOD         2
                    SECONDS     MINUTES      HOURS       DAYS        YEARS
                    -----------------------------------------------------------
   TIME STEP LENGTH  86.400      1.4400     2.40000E-02 1.00000E-03 2.73785E-06
 STRESS PERIOD TIME  18922.      315.36      5.2560     0.21900     5.99589E-04
         TOTAL TIME 1.05322E+05  1755.4      29.256      1.2190     3.33744E-03
1
 ------------------------------------------------------------------------------------------------------------
 
 SOLVING FOR TRANSPORT 

          SEQUENTIAL TRANSPORT ITERATION LOOP NUMBER    1
          -----------------------------------------------

 ------------------------------------------------------------------------------------------------------------------------
     1 CALLS TO SPARSE MATRIX SOLVER PACKAGE IN TRANSPORT TIME STEP     219 STRESS PERIOD       2 SPECIES  1

 TOTAL OF       1OUTER ITERATIONS
  MAXIMUM CHANGE FOR EACH ITERATION:
   MAX. CHANGE        NODE  MAX. CHANGE        NODE  MAX. CHANGE        NODE  MAX. CHANGE        NODE  MAX. CHANGE        NODE
 ------------------------------------------------------------------------------------------------------------------------------------
   0.18780    ,        960
     TRANSPORT SOLUTION COMPLETE FOR COMPONENT SPECIES NUMBER    1
     ------------------------------------------------------------

 TRANSPORT SOLUTION COMPLETE FOR ALL SPECIES, SORTING OUTPUT FOR CONCENTRATIONS AND MASS BALANCE
 ----------------------------------------------------------------------------------------------------
     TRANSPORT OUTPUT FOR COMPONENT SPECIES NUMBER    1
     ------------------------------------------------------------
 -------------------------------------------------------------------------------------
 
 SOLVING FOR HEAD 

 Outer-Iteration  Inner-Iteration  Backtracking  Number of        Incoming       Outgoing      Cutoff     Maximum Head Change      Maximum Head Change
     Number           Count           Flag       Backtracks       Residual       Residual      Residual            Value               Location
        1                             0             0          0.388156E-02     0.388156E-02   -1.00000    
        1               11                                                                                       0.316641E-04               3156           GWF-node number
        2                             0             0          0.132782E-06     0.132782E-06   -1.00000    
        2                1                                                                                       0.687141E-06               3123           GWF-node number
     2 CALLS TO SPARSE MATRIX SOLVER PACKAGE  IN FLOW TIME STEP     220 STRESS PERIOD       2

 TOTAL OF       2OUTER ITERATIONS
  MAXIMUM CHANGE FOR EACH ITERATION:
   MAX. CHANGE        NODE  MAX. CHANGE        NODE  MAX. CHANGE        NODE  MAX. CHANGE        NODE  MAX. CHANGE        NODE
 ------------------------------------------------------------------------------------------------------------------------------------
   0.31664E-04,       3156  0.68714E-06,       3123

 NO OUTPUT CONTROL FOR STRESS PERIOD        2   TIME STEP      220



          TIME SUMMARY AT END OF TIME STEP       220 IN STRESS PERIOD         2
                    SECONDS     MINUTES      HOURS       DAYS        YEARS
                    -----------------------------------------------------------
   TIME STEP LENGTH  86.400      1.4400     2.40000E-02 1.00000E-03 2.73785E-06
 STRESS PERIOD TIME  19008.      316.80      5.2800     0.22000     6.02327E-04
         TOTAL TIME 1.05408E+05  1756.8      29.280      1.2200     3.34018E-03
1
 ------------------------------------------------------------------------------------------------------------
 
 SOLVING FOR TRANSPORT 

          SEQUENTIAL TRANSPORT ITERATION LOOP NUMBER    1
          -----------------------------------------------

 ------------------------------------------------------------------------------------------------------------------------
     1 CALLS TO SPARSE MATRIX SOLVER PACKAGE IN TRANSPORT TIME STEP     220 STRESS PERIOD       2 SPECIES  1

 TOTAL OF       1OUTER ITERATIONS
  MAXIMUM CHANGE FOR EACH ITERATION:
   MAX. CHANGE        NODE  MAX. CHANGE        NODE  MAX. CHANGE        NODE  MAX. CHANGE        NODE  MAX. CHANGE        NODE
 ------------------------------------------------------------------------------------------------------------------------------------
   0.13982    ,        880
     TRANSPORT SOLUTION COMPLETE FOR COMPONENT SPECIES NUMBER    1
     ------------------------------------------------------------

 TRANSPORT SOLUTION COMPLETE FOR ALL SPECIES, SORTING OUTPUT FOR CONCENTRATIONS AND MASS BALANCE
 ----------------------------------------------------------------------------------------------------
     TRANSPORT OUTPUT FOR COMPONENT SPECIES NUMBER    1
     ------------------------------------------------------------
 -------------------------------------------------------------------------------------
 
 SOLVING FOR HEAD 

 Outer-Iteration  Inner-Iteration  Backtracking  Number of        Incoming       Outgoing      Cutoff     Maximum Head Change      Maximum Head Change
     Number           Count           Flag       Backtracks       Residual       Residual      Residual            Value               Location
        1                             0             0          0.286565E-02     0.286565E-02   -1.00000    
        1               10                                                                                       0.268858E-04               3156           GWF-node number
        2                             0             0          0.316035E-06     0.316035E-06   -1.00000    
        2                1                                                                                       0.416545E-06               1391           GWF-node number
     2 CALLS TO SPARSE MATRIX SOLVER PACKAGE  IN FLOW TIME STEP     221 STRESS PERIOD       2

 TOTAL OF       2OUTER ITERATIONS
  MAXIMUM CHANGE FOR EACH ITERATION:
   MAX. CHANGE        NODE  MAX. CHANGE        NODE  MAX. CHANGE        NODE  MAX. CHANGE        NODE  MAX. CHANGE        NODE
 ------------------------------------------------------------------------------------------------------------------------------------
   0.26886E-04,       3156  0.41655E-06,       1391

 NO OUTPUT CONTROL FOR STRESS PERIOD        2   TIME STEP      221



          TIME SUMMARY AT END OF TIME STEP       221 IN STRESS PERIOD         2
                    SECONDS     MINUTES      HOURS       DAYS        YEARS
                    -----------------------------------------------------------
   TIME STEP LENGTH  86.400      1.4400     2.40000E-02 1.00000E-03 2.73785E-06
 STRESS PERIOD TIME  19094.      318.24      5.3040     0.22100     6.05065E-04
         TOTAL TIME 1.05494E+05  1758.2      29.304      1.2210     3.34292E-03
1
 ------------------------------------------------------------------------------------------------------------
 
 SOLVING FOR TRANSPORT 

          SEQUENTIAL TRANSPORT ITERATION LOOP NUMBER    1
          -----------------------------------------------

 ------------------------------------------------------------------------------------------------------------------------
     1 CALLS TO SPARSE MATRIX SOLVER PACKAGE IN TRANSPORT TIME STEP     221 STRESS PERIOD       2 SPECIES  1

 TOTAL OF       1OUTER ITERATIONS
  MAXIMUM CHANGE FOR EACH ITERATION:
   MAX. CHANGE        NODE  MAX. CHANGE        NODE  MAX. CHANGE        NODE  MAX. CHANGE        NODE  MAX. CHANGE        NODE
 ------------------------------------------------------------------------------------------------------------------------------------
  -0.17172    ,       1520
     TRANSPORT SOLUTION COMPLETE FOR COMPONENT SPECIES NUMBER    1
     ------------------------------------------------------------

 TRANSPORT SOLUTION COMPLETE FOR ALL SPECIES, SORTING OUTPUT FOR CONCENTRATIONS AND MASS BALANCE
 ----------------------------------------------------------------------------------------------------
     TRANSPORT OUTPUT FOR COMPONENT SPECIES NUMBER    1
     ------------------------------------------------------------
 -------------------------------------------------------------------------------------
 
 SOLVING FOR HEAD 

 Outer-Iteration  Inner-Iteration  Backtracking  Number of        Incoming       Outgoing      Cutoff     Maximum Head Change      Maximum Head Change
     Number           Count           Flag       Backtracks       Residual       Residual      Residual            Value               Location
        1                             0             0          0.300854E-02     0.300854E-02   -1.00000    
        1               10                                                                                       0.238659E-04               3156           GWF-node number
        2                             0             0          0.345372E-06     0.345372E-06   -1.00000    
        2                1                                                                                      -0.250218E-06               1981           GWF-node number
     2 CALLS TO SPARSE MATRIX SOLVER PACKAGE  IN FLOW TIME STEP     222 STRESS PERIOD       2

 TOTAL OF       2OUTER ITERATIONS
  MAXIMUM CHANGE FOR EACH ITERATION:
   MAX. CHANGE        NODE  MAX. CHANGE        NODE  MAX. CHANGE        NODE  MAX. CHANGE        NODE  MAX. CHANGE        NODE
 ------------------------------------------------------------------------------------------------------------------------------------
   0.23866E-04,       3156 -0.25022E-06,       1981

 NO OUTPUT CONTROL FOR STRESS PERIOD        2   TIME STEP      222



          TIME SUMMARY AT END OF TIME STEP       222 IN STRESS PERIOD         2
                    SECONDS     MINUTES      HOURS       DAYS        YEARS
                    -----------------------------------------------------------
   TIME STEP LENGTH  86.400      1.4400     2.40000E-02 1.00000E-03 2.73785E-06
 STRESS PERIOD TIME  19181.      319.68      5.3280     0.22200     6.07803E-04
         TOTAL TIME 1.05581E+05  1759.7      29.328      1.2220     3.34565E-03
1
 ------------------------------------------------------------------------------------------------------------
 
 SOLVING FOR TRANSPORT 

          SEQUENTIAL TRANSPORT ITERATION LOOP NUMBER    1
          -----------------------------------------------

 ------------------------------------------------------------------------------------------------------------------------
     1 CALLS TO SPARSE MATRIX SOLVER PACKAGE IN TRANSPORT TIME STEP     222 STRESS PERIOD       2 SPECIES  1

 TOTAL OF       1OUTER ITERATIONS
  MAXIMUM CHANGE FOR EACH ITERATION:
   MAX. CHANGE        NODE  MAX. CHANGE        NODE  MAX. CHANGE        NODE  MAX. CHANGE        NODE  MAX. CHANGE        NODE
 ------------------------------------------------------------------------------------------------------------------------------------
  -0.21342    ,       1520
     TRANSPORT SOLUTION COMPLETE FOR COMPONENT SPECIES NUMBER    1
     ------------------------------------------------------------

 TRANSPORT SOLUTION COMPLETE FOR ALL SPECIES, SORTING OUTPUT FOR CONCENTRATIONS AND MASS BALANCE
 ----------------------------------------------------------------------------------------------------
     TRANSPORT OUTPUT FOR COMPONENT SPECIES NUMBER    1
     ------------------------------------------------------------
 -------------------------------------------------------------------------------------
 
 SOLVING FOR HEAD 

 Outer-Iteration  Inner-Iteration  Backtracking  Number of        Incoming       Outgoing      Cutoff     Maximum Head Change      Maximum Head Change
     Number           Count           Flag       Backtracks       Residual       Residual      Residual            Value               Location
        1                             0             0          0.409544E-02     0.409544E-02   -1.00000    
        1               10                                                                                       0.198239E-04               3156           GWF-node number
        2                             0             0          0.353721E-06     0.353721E-06   -1.00000    
        2                1                                                                                       0.756626E-06               3124           GWF-node number
     2 CALLS TO SPARSE MATRIX SOLVER PACKAGE  IN FLOW TIME STEP     223 STRESS PERIOD       2

 TOTAL OF       2OUTER ITERATIONS
  MAXIMUM CHANGE FOR EACH ITERATION:
   MAX. CHANGE        NODE  MAX. CHANGE        NODE  MAX. CHANGE        NODE  MAX. CHANGE        NODE  MAX. CHANGE        NODE
 ------------------------------------------------------------------------------------------------------------------------------------
   0.19824E-04,       3156  0.75663E-06,       3124

 NO OUTPUT CONTROL FOR STRESS PERIOD        2   TIME STEP      223



          TIME SUMMARY AT END OF TIME STEP       223 IN STRESS PERIOD         2
                    SECONDS     MINUTES      HOURS       DAYS        YEARS
                    -----------------------------------------------------------
   TIME STEP LENGTH  86.400      1.4400     2.40000E-02 1.00000E-03 2.73785E-06
 STRESS PERIOD TIME  19267.      321.12      5.3520     0.22300     6.10541E-04
         TOTAL TIME 1.05667E+05  1761.1      29.352      1.2230     3.34839E-03
1
 ------------------------------------------------------------------------------------------------------------
 
 SOLVING FOR TRANSPORT 

          SEQUENTIAL TRANSPORT ITERATION LOOP NUMBER    1
          -----------------------------------------------

 ------------------------------------------------------------------------------------------------------------------------
     1 CALLS TO SPARSE MATRIX SOLVER PACKAGE IN TRANSPORT TIME STEP     223 STRESS PERIOD       2 SPECIES  1

 TOTAL OF       1OUTER ITERATIONS
  MAXIMUM CHANGE FOR EACH ITERATION:
   MAX. CHANGE        NODE  MAX. CHANGE        NODE  MAX. CHANGE        NODE  MAX. CHANGE        NODE  MAX. CHANGE        NODE
 ------------------------------------------------------------------------------------------------------------------------------------
  -0.24483    ,       1520
     TRANSPORT SOLUTION COMPLETE FOR COMPONENT SPECIES NUMBER    1
     ------------------------------------------------------------

 TRANSPORT SOLUTION COMPLETE FOR ALL SPECIES, SORTING OUTPUT FOR CONCENTRATIONS AND MASS BALANCE
 ----------------------------------------------------------------------------------------------------
     TRANSPORT OUTPUT FOR COMPONENT SPECIES NUMBER    1
     ------------------------------------------------------------
 -------------------------------------------------------------------------------------
 
 SOLVING FOR HEAD 

 Outer-Iteration  Inner-Iteration  Backtracking  Number of        Incoming       Outgoing      Cutoff     Maximum Head Change      Maximum Head Change
     Number           Count           Flag       Backtracks       Residual       Residual      Residual            Value               Location
        1                             0             0          0.552864E-02     0.552864E-02   -1.00000    
        1                7                                                                                       0.205106E-04               1438           GWF-node number
        2                             0             0          0.184444E-04     0.184444E-04   -1.00000    
        2                5                                                                                      -0.157164E-05                176           GWF-node number
     2 CALLS TO SPARSE MATRIX SOLVER PACKAGE  IN FLOW TIME STEP     224 STRESS PERIOD       2

 TOTAL OF       2OUTER ITERATIONS
  MAXIMUM CHANGE FOR EACH ITERATION:
   MAX. CHANGE        NODE  MAX. CHANGE        NODE  MAX. CHANGE        NODE  MAX. CHANGE        NODE  MAX. CHANGE        NODE
 ------------------------------------------------------------------------------------------------------------------------------------
   0.20511E-04,       1438 -0.15716E-05,        176

 NO OUTPUT CONTROL FOR STRESS PERIOD        2   TIME STEP      224



          TIME SUMMARY AT END OF TIME STEP       224 IN STRESS PERIOD         2
                    SECONDS     MINUTES      HOURS       DAYS        YEARS
                    -----------------------------------------------------------
   TIME STEP LENGTH  86.400      1.4400     2.40000E-02 1.00000E-03 2.73785E-06
 STRESS PERIOD TIME  19354.      322.56      5.3760     0.22400     6.13279E-04
         TOTAL TIME 1.05754E+05  1762.6      29.376      1.2240     3.35113E-03
1
 ------------------------------------------------------------------------------------------------------------
 
 SOLVING FOR TRANSPORT 

          SEQUENTIAL TRANSPORT ITERATION LOOP NUMBER    1
          -----------------------------------------------

 ------------------------------------------------------------------------------------------------------------------------
     1 CALLS TO SPARSE MATRIX SOLVER PACKAGE IN TRANSPORT TIME STEP     224 STRESS PERIOD       2 SPECIES  1

 TOTAL OF       1OUTER ITERATIONS
  MAXIMUM CHANGE FOR EACH ITERATION:
   MAX. CHANGE        NODE  MAX. CHANGE        NODE  MAX. CHANGE        NODE  MAX. CHANGE        NODE  MAX. CHANGE        NODE
 ------------------------------------------------------------------------------------------------------------------------------------
  -0.26944    ,       1440
     TRANSPORT SOLUTION COMPLETE FOR COMPONENT SPECIES NUMBER    1
     ------------------------------------------------------------

 TRANSPORT SOLUTION COMPLETE FOR ALL SPECIES, SORTING OUTPUT FOR CONCENTRATIONS AND MASS BALANCE
 ----------------------------------------------------------------------------------------------------
     TRANSPORT OUTPUT FOR COMPONENT SPECIES NUMBER    1
     ------------------------------------------------------------
 -------------------------------------------------------------------------------------
 
 SOLVING FOR HEAD 

 Outer-Iteration  Inner-Iteration  Backtracking  Number of        Incoming       Outgoing      Cutoff     Maximum Head Change      Maximum Head Change
     Number           Count           Flag       Backtracks       Residual       Residual      Residual            Value               Location
        1                             0             0          0.631032E-02     0.631032E-02   -1.00000    
        1               13                                                                                       0.248017E-04               1439           GWF-node number
        2                             0             0          0.803403E-07     0.803403E-07   -1.00000    
        2                1                                                                                      -0.445293E-06               2173           GWF-node number
     2 CALLS TO SPARSE MATRIX SOLVER PACKAGE  IN FLOW TIME STEP     225 STRESS PERIOD       2

 TOTAL OF       2OUTER ITERATIONS
  MAXIMUM CHANGE FOR EACH ITERATION:
   MAX. CHANGE        NODE  MAX. CHANGE        NODE  MAX. CHANGE        NODE  MAX. CHANGE        NODE  MAX. CHANGE        NODE
 ------------------------------------------------------------------------------------------------------------------------------------
   0.24802E-04,       1439 -0.44529E-06,       2173

 NO OUTPUT CONTROL FOR STRESS PERIOD        2   TIME STEP      225



          TIME SUMMARY AT END OF TIME STEP       225 IN STRESS PERIOD         2
                    SECONDS     MINUTES      HOURS       DAYS        YEARS
                    -----------------------------------------------------------
   TIME STEP LENGTH  86.400      1.4400     2.40000E-02 1.00000E-03 2.73785E-06
 STRESS PERIOD TIME  19440.      324.00      5.4000     0.22500     6.16016E-04
         TOTAL TIME 1.05840E+05  1764.0      29.400      1.2250     3.35387E-03
1
 ------------------------------------------------------------------------------------------------------------
 
 SOLVING FOR TRANSPORT 

          SEQUENTIAL TRANSPORT ITERATION LOOP NUMBER    1
          -----------------------------------------------

 ------------------------------------------------------------------------------------------------------------------------
     1 CALLS TO SPARSE MATRIX SOLVER PACKAGE IN TRANSPORT TIME STEP     225 STRESS PERIOD       2 SPECIES  1

 TOTAL OF       1OUTER ITERATIONS
  MAXIMUM CHANGE FOR EACH ITERATION:
   MAX. CHANGE        NODE  MAX. CHANGE        NODE  MAX. CHANGE        NODE  MAX. CHANGE        NODE  MAX. CHANGE        NODE
 ------------------------------------------------------------------------------------------------------------------------------------
  -0.31565    ,       1440
     TRANSPORT SOLUTION COMPLETE FOR COMPONENT SPECIES NUMBER    1
     ------------------------------------------------------------

 TRANSPORT SOLUTION COMPLETE FOR ALL SPECIES, SORTING OUTPUT FOR CONCENTRATIONS AND MASS BALANCE
 ----------------------------------------------------------------------------------------------------
     TRANSPORT OUTPUT FOR COMPONENT SPECIES NUMBER    1
     ------------------------------------------------------------
 -------------------------------------------------------------------------------------
 
 SOLVING FOR HEAD 

 Outer-Iteration  Inner-Iteration  Backtracking  Number of        Incoming       Outgoing      Cutoff     Maximum Head Change      Maximum Head Change
     Number           Count           Flag       Backtracks       Residual       Residual      Residual            Value               Location
        1                             0             0          0.100435E-01     0.100435E-01   -1.00000    
        1               14                                                                                       0.262329E-04               1440           GWF-node number
        2                             0             0          0.871341E-08     0.871341E-08   -1.00000    
        2                1                                                                                      -0.990591E-07               3126           GWF-node number
     2 CALLS TO SPARSE MATRIX SOLVER PACKAGE  IN FLOW TIME STEP     226 STRESS PERIOD       2

 TOTAL OF       2OUTER ITERATIONS
  MAXIMUM CHANGE FOR EACH ITERATION:
   MAX. CHANGE        NODE  MAX. CHANGE        NODE  MAX. CHANGE        NODE  MAX. CHANGE        NODE  MAX. CHANGE        NODE
 ------------------------------------------------------------------------------------------------------------------------------------
   0.26233E-04,       1440 -0.99059E-07,       3126

 NO OUTPUT CONTROL FOR STRESS PERIOD        2   TIME STEP      226



          TIME SUMMARY AT END OF TIME STEP       226 IN STRESS PERIOD         2
                    SECONDS     MINUTES      HOURS       DAYS        YEARS
                    -----------------------------------------------------------
   TIME STEP LENGTH  86.400      1.4400     2.40000E-02 1.00000E-03 2.73785E-06
 STRESS PERIOD TIME  19526.      325.44      5.4240     0.22600     6.18754E-04
         TOTAL TIME 1.05926E+05  1765.4      29.424      1.2260     3.35660E-03
1
 ------------------------------------------------------------------------------------------------------------
 
 SOLVING FOR TRANSPORT 

          SEQUENTIAL TRANSPORT ITERATION LOOP NUMBER    1
          -----------------------------------------------

 ------------------------------------------------------------------------------------------------------------------------
     1 CALLS TO SPARSE MATRIX SOLVER PACKAGE IN TRANSPORT TIME STEP     226 STRESS PERIOD       2 SPECIES  1

 TOTAL OF       1OUTER ITERATIONS
  MAXIMUM CHANGE FOR EACH ITERATION:
   MAX. CHANGE        NODE  MAX. CHANGE        NODE  MAX. CHANGE        NODE  MAX. CHANGE        NODE  MAX. CHANGE        NODE
 ------------------------------------------------------------------------------------------------------------------------------------
  -0.26525    ,       1360
     TRANSPORT SOLUTION COMPLETE FOR COMPONENT SPECIES NUMBER    1
     ------------------------------------------------------------

 TRANSPORT SOLUTION COMPLETE FOR ALL SPECIES, SORTING OUTPUT FOR CONCENTRATIONS AND MASS BALANCE
 ----------------------------------------------------------------------------------------------------
     TRANSPORT OUTPUT FOR COMPONENT SPECIES NUMBER    1
     ------------------------------------------------------------
 -------------------------------------------------------------------------------------
 
 SOLVING FOR HEAD 

 Outer-Iteration  Inner-Iteration  Backtracking  Number of        Incoming       Outgoing      Cutoff     Maximum Head Change      Maximum Head Change
     Number           Count           Flag       Backtracks       Residual       Residual      Residual            Value               Location
        1                             0             0          0.745354E-02     0.745354E-02   -1.00000    
        1               11                                                                                       0.286883E-04               1359           GWF-node number
        2                             0             0          0.664185E-06     0.664185E-06   -1.00000    
        2                2                                                                                      -0.150044E-05               2499           GWF-node number
     2 CALLS TO SPARSE MATRIX SOLVER PACKAGE  IN FLOW TIME STEP     227 STRESS PERIOD       2

 TOTAL OF       2OUTER ITERATIONS
  MAXIMUM CHANGE FOR EACH ITERATION:
   MAX. CHANGE        NODE  MAX. CHANGE        NODE  MAX. CHANGE        NODE  MAX. CHANGE        NODE  MAX. CHANGE        NODE
 ------------------------------------------------------------------------------------------------------------------------------------
   0.28688E-04,       1359 -0.15004E-05,       2499

 NO OUTPUT CONTROL FOR STRESS PERIOD        2   TIME STEP      227



          TIME SUMMARY AT END OF TIME STEP       227 IN STRESS PERIOD         2
                    SECONDS     MINUTES      HOURS       DAYS        YEARS
                    -----------------------------------------------------------
   TIME STEP LENGTH  86.400      1.4400     2.40000E-02 1.00000E-03 2.73785E-06
 STRESS PERIOD TIME  19613.      326.88      5.4480     0.22700     6.21492E-04
         TOTAL TIME 1.06013E+05  1766.9      29.448      1.2270     3.35934E-03
1
 ------------------------------------------------------------------------------------------------------------
 
 SOLVING FOR TRANSPORT 

          SEQUENTIAL TRANSPORT ITERATION LOOP NUMBER    1
          -----------------------------------------------

 ------------------------------------------------------------------------------------------------------------------------
     1 CALLS TO SPARSE MATRIX SOLVER PACKAGE IN TRANSPORT TIME STEP     227 STRESS PERIOD       2 SPECIES  1

 TOTAL OF       1OUTER ITERATIONS
  MAXIMUM CHANGE FOR EACH ITERATION:
   MAX. CHANGE        NODE  MAX. CHANGE        NODE  MAX. CHANGE        NODE  MAX. CHANGE        NODE  MAX. CHANGE        NODE
 ------------------------------------------------------------------------------------------------------------------------------------
  -0.32831    ,       1360
     TRANSPORT SOLUTION COMPLETE FOR COMPONENT SPECIES NUMBER    1
     ------------------------------------------------------------

 TRANSPORT SOLUTION COMPLETE FOR ALL SPECIES, SORTING OUTPUT FOR CONCENTRATIONS AND MASS BALANCE
 ----------------------------------------------------------------------------------------------------
     TRANSPORT OUTPUT FOR COMPONENT SPECIES NUMBER    1
     ------------------------------------------------------------
 -------------------------------------------------------------------------------------
 
 SOLVING FOR HEAD 

 Outer-Iteration  Inner-Iteration  Backtracking  Number of        Incoming       Outgoing      Cutoff     Maximum Head Change      Maximum Head Change
     Number           Count           Flag       Backtracks       Residual       Residual      Residual            Value               Location
        1                             0             0          0.124676E-01     0.124676E-01   -1.00000    
        1               10                                                                                       0.283726E-04               1360           GWF-node number
        2                             0             0          0.157982E-05     0.157982E-05   -1.00000    
        2                3                                                                                      -0.863282E-06               2969           GWF-node number
     2 CALLS TO SPARSE MATRIX SOLVER PACKAGE  IN FLOW TIME STEP     228 STRESS PERIOD       2

 TOTAL OF       2OUTER ITERATIONS
  MAXIMUM CHANGE FOR EACH ITERATION:
   MAX. CHANGE        NODE  MAX. CHANGE        NODE  MAX. CHANGE        NODE  MAX. CHANGE        NODE  MAX. CHANGE        NODE
 ------------------------------------------------------------------------------------------------------------------------------------
   0.28373E-04,       1360 -0.86328E-06,       2969

 NO OUTPUT CONTROL FOR STRESS PERIOD        2   TIME STEP      228



          TIME SUMMARY AT END OF TIME STEP       228 IN STRESS PERIOD         2
                    SECONDS     MINUTES      HOURS       DAYS        YEARS
                    -----------------------------------------------------------
   TIME STEP LENGTH  86.400      1.4400     2.40000E-02 1.00000E-03 2.73785E-06
 STRESS PERIOD TIME  19699.      328.32      5.4720     0.22800     6.24230E-04
         TOTAL TIME 1.06099E+05  1768.3      29.472      1.2280     3.36208E-03
1
 ------------------------------------------------------------------------------------------------------------
 
 SOLVING FOR TRANSPORT 

          SEQUENTIAL TRANSPORT ITERATION LOOP NUMBER    1
          -----------------------------------------------

 ------------------------------------------------------------------------------------------------------------------------
     1 CALLS TO SPARSE MATRIX SOLVER PACKAGE IN TRANSPORT TIME STEP     228 STRESS PERIOD       2 SPECIES  1

 TOTAL OF       1OUTER ITERATIONS
  MAXIMUM CHANGE FOR EACH ITERATION:
   MAX. CHANGE        NODE  MAX. CHANGE        NODE  MAX. CHANGE        NODE  MAX. CHANGE        NODE  MAX. CHANGE        NODE
 ------------------------------------------------------------------------------------------------------------------------------------
  -0.43969    ,       1360
     TRANSPORT SOLUTION COMPLETE FOR COMPONENT SPECIES NUMBER    1
     ------------------------------------------------------------

 TRANSPORT SOLUTION COMPLETE FOR ALL SPECIES, SORTING OUTPUT FOR CONCENTRATIONS AND MASS BALANCE
 ----------------------------------------------------------------------------------------------------
     TRANSPORT OUTPUT FOR COMPONENT SPECIES NUMBER    1
     ------------------------------------------------------------
 -------------------------------------------------------------------------------------
 
 SOLVING FOR HEAD 

 Outer-Iteration  Inner-Iteration  Backtracking  Number of        Incoming       Outgoing      Cutoff     Maximum Head Change      Maximum Head Change
     Number           Count           Flag       Backtracks       Residual       Residual      Residual            Value               Location
        1                             0             0          0.308813E-01     0.308813E-01   -1.00000    
        1               10                                                                                       0.425002E-04               1360           GWF-node number
        2                             0             0          0.308136E-05     0.308136E-05   -1.00000    
        2                3                                                                                       0.463305E-06               2321           GWF-node number
     2 CALLS TO SPARSE MATRIX SOLVER PACKAGE  IN FLOW TIME STEP     229 STRESS PERIOD       2

 TOTAL OF       2OUTER ITERATIONS
  MAXIMUM CHANGE FOR EACH ITERATION:
   MAX. CHANGE        NODE  MAX. CHANGE        NODE  MAX. CHANGE        NODE  MAX. CHANGE        NODE  MAX. CHANGE        NODE
 ------------------------------------------------------------------------------------------------------------------------------------
   0.42500E-04,       1360  0.46330E-06,       2321

 NO OUTPUT CONTROL FOR STRESS PERIOD        2   TIME STEP      229



          TIME SUMMARY AT END OF TIME STEP       229 IN STRESS PERIOD         2
                    SECONDS     MINUTES      HOURS       DAYS        YEARS
                    -----------------------------------------------------------
   TIME STEP LENGTH  86.400      1.4400     2.40000E-02 1.00000E-03 2.73785E-06
 STRESS PERIOD TIME  19786.      329.76      5.4960     0.22900     6.26968E-04
         TOTAL TIME 1.06186E+05  1769.8      29.496      1.2290     3.36482E-03
1
 ------------------------------------------------------------------------------------------------------------
 
 SOLVING FOR TRANSPORT 

          SEQUENTIAL TRANSPORT ITERATION LOOP NUMBER    1
          -----------------------------------------------

 ------------------------------------------------------------------------------------------------------------------------
     1 CALLS TO SPARSE MATRIX SOLVER PACKAGE IN TRANSPORT TIME STEP     229 STRESS PERIOD       2 SPECIES  1

 TOTAL OF       1OUTER ITERATIONS
  MAXIMUM CHANGE FOR EACH ITERATION:
   MAX. CHANGE        NODE  MAX. CHANGE        NODE  MAX. CHANGE        NODE  MAX. CHANGE        NODE  MAX. CHANGE        NODE
 ------------------------------------------------------------------------------------------------------------------------------------
  -0.24689    ,       1360
     TRANSPORT SOLUTION COMPLETE FOR COMPONENT SPECIES NUMBER    1
     ------------------------------------------------------------

 TRANSPORT SOLUTION COMPLETE FOR ALL SPECIES, SORTING OUTPUT FOR CONCENTRATIONS AND MASS BALANCE
 ----------------------------------------------------------------------------------------------------
     TRANSPORT OUTPUT FOR COMPONENT SPECIES NUMBER    1
     ------------------------------------------------------------
 -------------------------------------------------------------------------------------
 
 SOLVING FOR HEAD 

 Outer-Iteration  Inner-Iteration  Backtracking  Number of        Incoming       Outgoing      Cutoff     Maximum Head Change      Maximum Head Change
     Number           Count           Flag       Backtracks       Residual       Residual      Residual            Value               Location
        1                             0             0          0.827454E-02     0.827454E-02   -1.00000    
        1                9                                                                                       0.255879E-04               1279           GWF-node number
        2                             0             0          0.252074E-05     0.252074E-05   -1.00000    
        2                3                                                                                       0.180434E-05               3145           GWF-node number
     2 CALLS TO SPARSE MATRIX SOLVER PACKAGE  IN FLOW TIME STEP     230 STRESS PERIOD       2

 TOTAL OF       2OUTER ITERATIONS
  MAXIMUM CHANGE FOR EACH ITERATION:
   MAX. CHANGE        NODE  MAX. CHANGE        NODE  MAX. CHANGE        NODE  MAX. CHANGE        NODE  MAX. CHANGE        NODE
 ------------------------------------------------------------------------------------------------------------------------------------
   0.25588E-04,       1279  0.18043E-05,       3145

 NO OUTPUT CONTROL FOR STRESS PERIOD        2   TIME STEP      230



          TIME SUMMARY AT END OF TIME STEP       230 IN STRESS PERIOD         2
                    SECONDS     MINUTES      HOURS       DAYS        YEARS
                    -----------------------------------------------------------
   TIME STEP LENGTH  86.400      1.4400     2.40000E-02 1.00000E-03 2.73785E-06
 STRESS PERIOD TIME  19872.      331.20      5.5200     0.23000     6.29706E-04
         TOTAL TIME 1.06272E+05  1771.2      29.520      1.2300     3.36756E-03
1
 ------------------------------------------------------------------------------------------------------------
 
 SOLVING FOR TRANSPORT 

          SEQUENTIAL TRANSPORT ITERATION LOOP NUMBER    1
          -----------------------------------------------

 ------------------------------------------------------------------------------------------------------------------------
     1 CALLS TO SPARSE MATRIX SOLVER PACKAGE IN TRANSPORT TIME STEP     230 STRESS PERIOD       2 SPECIES  1

 TOTAL OF       1OUTER ITERATIONS
  MAXIMUM CHANGE FOR EACH ITERATION:
   MAX. CHANGE        NODE  MAX. CHANGE        NODE  MAX. CHANGE        NODE  MAX. CHANGE        NODE  MAX. CHANGE        NODE
 ------------------------------------------------------------------------------------------------------------------------------------
  -0.26137    ,       1280
     TRANSPORT SOLUTION COMPLETE FOR COMPONENT SPECIES NUMBER    1
     ------------------------------------------------------------

 TRANSPORT SOLUTION COMPLETE FOR ALL SPECIES, SORTING OUTPUT FOR CONCENTRATIONS AND MASS BALANCE
 ----------------------------------------------------------------------------------------------------
     TRANSPORT OUTPUT FOR COMPONENT SPECIES NUMBER    1
     ------------------------------------------------------------
 -------------------------------------------------------------------------------------
 
 SOLVING FOR HEAD 

 Outer-Iteration  Inner-Iteration  Backtracking  Number of        Incoming       Outgoing      Cutoff     Maximum Head Change      Maximum Head Change
     Number           Count           Flag       Backtracks       Residual       Residual      Residual            Value               Location
        1                             0             0          0.593485E-02     0.593485E-02   -1.00000    
        1               11                                                                                       0.185064E-04               1280           GWF-node number
        2                             0             0          0.225468E-06     0.225468E-06   -1.00000    
        2                1                                                                                       0.599096E-06               2915           GWF-node number
     2 CALLS TO SPARSE MATRIX SOLVER PACKAGE  IN FLOW TIME STEP     231 STRESS PERIOD       2

 TOTAL OF       2OUTER ITERATIONS
  MAXIMUM CHANGE FOR EACH ITERATION:
   MAX. CHANGE        NODE  MAX. CHANGE        NODE  MAX. CHANGE        NODE  MAX. CHANGE        NODE  MAX. CHANGE        NODE
 ------------------------------------------------------------------------------------------------------------------------------------
   0.18506E-04,       1280  0.59910E-06,       2915

 NO OUTPUT CONTROL FOR STRESS PERIOD        2   TIME STEP      231



          TIME SUMMARY AT END OF TIME STEP       231 IN STRESS PERIOD         2
                    SECONDS     MINUTES      HOURS       DAYS        YEARS
                    -----------------------------------------------------------
   TIME STEP LENGTH  86.400      1.4400     2.40000E-02 1.00000E-03 2.73785E-06
 STRESS PERIOD TIME  19958.      332.64      5.5440     0.23100     6.32444E-04
         TOTAL TIME 1.06358E+05  1772.6      29.544      1.2310     3.37029E-03
1
 ------------------------------------------------------------------------------------------------------------
 
 SOLVING FOR TRANSPORT 

          SEQUENTIAL TRANSPORT ITERATION LOOP NUMBER    1
          -----------------------------------------------

 ------------------------------------------------------------------------------------------------------------------------
     1 CALLS TO SPARSE MATRIX SOLVER PACKAGE IN TRANSPORT TIME STEP     231 STRESS PERIOD       2 SPECIES  1

 TOTAL OF       1OUTER ITERATIONS
  MAXIMUM CHANGE FOR EACH ITERATION:
   MAX. CHANGE        NODE  MAX. CHANGE        NODE  MAX. CHANGE        NODE  MAX. CHANGE        NODE  MAX. CHANGE        NODE
 ------------------------------------------------------------------------------------------------------------------------------------
  -0.34330    ,       1280
     TRANSPORT SOLUTION COMPLETE FOR COMPONENT SPECIES NUMBER    1
     ------------------------------------------------------------

 TRANSPORT SOLUTION COMPLETE FOR ALL SPECIES, SORTING OUTPUT FOR CONCENTRATIONS AND MASS BALANCE
 ----------------------------------------------------------------------------------------------------
     TRANSPORT OUTPUT FOR COMPONENT SPECIES NUMBER    1
     ------------------------------------------------------------
 -------------------------------------------------------------------------------------
 
 SOLVING FOR HEAD 

 Outer-Iteration  Inner-Iteration  Backtracking  Number of        Incoming       Outgoing      Cutoff     Maximum Head Change      Maximum Head Change
     Number           Count           Flag       Backtracks       Residual       Residual      Residual            Value               Location
        1                             0             0          0.177595E-01     0.177595E-01   -1.00000    
        1               11                                                                                       0.284102E-04               1280           GWF-node number
        2                             0             0          0.415377E-06     0.415377E-06   -1.00000    
        2                1                                                                                      -0.563694E-06               2174           GWF-node number
     2 CALLS TO SPARSE MATRIX SOLVER PACKAGE  IN FLOW TIME STEP     232 STRESS PERIOD       2

 TOTAL OF       2OUTER ITERATIONS
  MAXIMUM CHANGE FOR EACH ITERATION:
   MAX. CHANGE        NODE  MAX. CHANGE        NODE  MAX. CHANGE        NODE  MAX. CHANGE        NODE  MAX. CHANGE        NODE
 ------------------------------------------------------------------------------------------------------------------------------------
   0.28410E-04,       1280 -0.56369E-06,       2174

 NO OUTPUT CONTROL FOR STRESS PERIOD        2   TIME STEP      232



          TIME SUMMARY AT END OF TIME STEP       232 IN STRESS PERIOD         2
                    SECONDS     MINUTES      HOURS       DAYS        YEARS
                    -----------------------------------------------------------
   TIME STEP LENGTH  86.400      1.4400     2.40000E-02 1.00000E-03 2.73785E-06
 STRESS PERIOD TIME  20045.      334.08      5.5680     0.23200     6.35181E-04
         TOTAL TIME 1.06445E+05  1774.1      29.568      1.2320     3.37303E-03
1
 ------------------------------------------------------------------------------------------------------------
 
 SOLVING FOR TRANSPORT 

          SEQUENTIAL TRANSPORT ITERATION LOOP NUMBER    1
          -----------------------------------------------

 ------------------------------------------------------------------------------------------------------------------------
     1 CALLS TO SPARSE MATRIX SOLVER PACKAGE IN TRANSPORT TIME STEP     232 STRESS PERIOD       2 SPECIES  1

 TOTAL OF       1OUTER ITERATIONS
  MAXIMUM CHANGE FOR EACH ITERATION:
   MAX. CHANGE        NODE  MAX. CHANGE        NODE  MAX. CHANGE        NODE  MAX. CHANGE        NODE  MAX. CHANGE        NODE
 ------------------------------------------------------------------------------------------------------------------------------------
  -0.48616    ,       1200
     TRANSPORT SOLUTION COMPLETE FOR COMPONENT SPECIES NUMBER    1
     ------------------------------------------------------------

 TRANSPORT SOLUTION COMPLETE FOR ALL SPECIES, SORTING OUTPUT FOR CONCENTRATIONS AND MASS BALANCE
 ----------------------------------------------------------------------------------------------------
     TRANSPORT OUTPUT FOR COMPONENT SPECIES NUMBER    1
     ------------------------------------------------------------
 -------------------------------------------------------------------------------------
 
 SOLVING FOR HEAD 

 Outer-Iteration  Inner-Iteration  Backtracking  Number of        Incoming       Outgoing      Cutoff     Maximum Head Change      Maximum Head Change
     Number           Count           Flag       Backtracks       Residual       Residual      Residual            Value               Location
        1                             0             0          0.488396E-01     0.488396E-01   -1.00000    
        1                9                                                                                       0.402160E-04               1280           GWF-node number
        2                             0             0          0.867401E-05     0.867401E-05   -1.00000    
        2                4                                                                                       0.166584E-05               2364           GWF-node number
     2 CALLS TO SPARSE MATRIX SOLVER PACKAGE  IN FLOW TIME STEP     233 STRESS PERIOD       2

 TOTAL OF       2OUTER ITERATIONS
  MAXIMUM CHANGE FOR EACH ITERATION:
   MAX. CHANGE        NODE  MAX. CHANGE        NODE  MAX. CHANGE        NODE  MAX. CHANGE        NODE  MAX. CHANGE        NODE
 ------------------------------------------------------------------------------------------------------------------------------------
   0.40216E-04,       1280  0.16658E-05,       2364

 NO OUTPUT CONTROL FOR STRESS PERIOD        2   TIME STEP      233



          TIME SUMMARY AT END OF TIME STEP       233 IN STRESS PERIOD         2
                    SECONDS     MINUTES      HOURS       DAYS        YEARS
                    -----------------------------------------------------------
   TIME STEP LENGTH  86.400      1.4400     2.40000E-02 1.00000E-03 2.73785E-06
 STRESS PERIOD TIME  20131.      335.52      5.5920     0.23300     6.37919E-04
         TOTAL TIME 1.06531E+05  1775.5      29.592      1.2330     3.37577E-03
1
 ------------------------------------------------------------------------------------------------------------
 
 SOLVING FOR TRANSPORT 

          SEQUENTIAL TRANSPORT ITERATION LOOP NUMBER    1
          -----------------------------------------------

 ------------------------------------------------------------------------------------------------------------------------
     1 CALLS TO SPARSE MATRIX SOLVER PACKAGE IN TRANSPORT TIME STEP     233 STRESS PERIOD       2 SPECIES  1

 TOTAL OF       1OUTER ITERATIONS
  MAXIMUM CHANGE FOR EACH ITERATION:
   MAX. CHANGE        NODE  MAX. CHANGE        NODE  MAX. CHANGE        NODE  MAX. CHANGE        NODE  MAX. CHANGE        NODE
 ------------------------------------------------------------------------------------------------------------------------------------
  -0.69957    ,       1200
     TRANSPORT SOLUTION COMPLETE FOR COMPONENT SPECIES NUMBER    1
     ------------------------------------------------------------

 TRANSPORT SOLUTION COMPLETE FOR ALL SPECIES, SORTING OUTPUT FOR CONCENTRATIONS AND MASS BALANCE
 ----------------------------------------------------------------------------------------------------
     TRANSPORT OUTPUT FOR COMPONENT SPECIES NUMBER    1
     ------------------------------------------------------------
 -------------------------------------------------------------------------------------
 
 SOLVING FOR HEAD 

 Outer-Iteration  Inner-Iteration  Backtracking  Number of        Incoming       Outgoing      Cutoff     Maximum Head Change      Maximum Head Change
     Number           Count           Flag       Backtracks       Residual       Residual      Residual            Value               Location
        1                             0             0          0.745459E-01     0.745459E-01   -1.00000    
        1               10                                                                                       0.511600E-04               1200           GWF-node number
        2                             0             0          0.966524E-05     0.966524E-05   -1.00000    
        2                4                                                                                       0.700345E-06               1761           GWF-node number
     2 CALLS TO SPARSE MATRIX SOLVER PACKAGE  IN FLOW TIME STEP     234 STRESS PERIOD       2

 TOTAL OF       2OUTER ITERATIONS
  MAXIMUM CHANGE FOR EACH ITERATION:
   MAX. CHANGE        NODE  MAX. CHANGE        NODE  MAX. CHANGE        NODE  MAX. CHANGE        NODE  MAX. CHANGE        NODE
 ------------------------------------------------------------------------------------------------------------------------------------
   0.51160E-04,       1200  0.70035E-06,       1761

 NO OUTPUT CONTROL FOR STRESS PERIOD        2   TIME STEP      234



          TIME SUMMARY AT END OF TIME STEP       234 IN STRESS PERIOD         2
                    SECONDS     MINUTES      HOURS       DAYS        YEARS
                    -----------------------------------------------------------
   TIME STEP LENGTH  86.400      1.4400     2.40000E-02 1.00000E-03 2.73785E-06
 STRESS PERIOD TIME  20218.      336.96      5.6160     0.23400     6.40657E-04
         TOTAL TIME 1.06618E+05  1777.0      29.616      1.2340     3.37851E-03
1
 ------------------------------------------------------------------------------------------------------------
 
 SOLVING FOR TRANSPORT 

          SEQUENTIAL TRANSPORT ITERATION LOOP NUMBER    1
          -----------------------------------------------

 ------------------------------------------------------------------------------------------------------------------------
     1 CALLS TO SPARSE MATRIX SOLVER PACKAGE IN TRANSPORT TIME STEP     234 STRESS PERIOD       2 SPECIES  1

 TOTAL OF       1OUTER ITERATIONS
  MAXIMUM CHANGE FOR EACH ITERATION:
   MAX. CHANGE        NODE  MAX. CHANGE        NODE  MAX. CHANGE        NODE  MAX. CHANGE        NODE  MAX. CHANGE        NODE
 ------------------------------------------------------------------------------------------------------------------------------------
  -0.33904    ,       1040
     TRANSPORT SOLUTION COMPLETE FOR COMPONENT SPECIES NUMBER    1
     ------------------------------------------------------------

 TRANSPORT SOLUTION COMPLETE FOR ALL SPECIES, SORTING OUTPUT FOR CONCENTRATIONS AND MASS BALANCE
 ----------------------------------------------------------------------------------------------------
     TRANSPORT OUTPUT FOR COMPONENT SPECIES NUMBER    1
     ------------------------------------------------------------
 -------------------------------------------------------------------------------------
 
 SOLVING FOR HEAD 

 Outer-Iteration  Inner-Iteration  Backtracking  Number of        Incoming       Outgoing      Cutoff     Maximum Head Change      Maximum Head Change
     Number           Count           Flag       Backtracks       Residual       Residual      Residual            Value               Location
        1                             0             0          0.181624E-01     0.181624E-01   -1.00000    
        1               10                                                                                      -0.295101E-04               1358           GWF-node number
        2                             0             0          0.130508E-05     0.130508E-05   -1.00000    
        2                3                                                                                      -0.354395E-06               3050           GWF-node number
     2 CALLS TO SPARSE MATRIX SOLVER PACKAGE  IN FLOW TIME STEP     235 STRESS PERIOD       2

 TOTAL OF       2OUTER ITERATIONS
  MAXIMUM CHANGE FOR EACH ITERATION:
   MAX. CHANGE        NODE  MAX. CHANGE        NODE  MAX. CHANGE        NODE  MAX. CHANGE        NODE  MAX. CHANGE        NODE
 ------------------------------------------------------------------------------------------------------------------------------------
  -0.29510E-04,       1358 -0.35440E-06,       3050

 NO OUTPUT CONTROL FOR STRESS PERIOD        2   TIME STEP      235



          TIME SUMMARY AT END OF TIME STEP       235 IN STRESS PERIOD         2
                    SECONDS     MINUTES      HOURS       DAYS        YEARS
                    -----------------------------------------------------------
   TIME STEP LENGTH  86.400      1.4400     2.40000E-02 1.00000E-03 2.73785E-06
 STRESS PERIOD TIME  20304.      338.40      5.6400     0.23500     6.43395E-04
         TOTAL TIME 1.06704E+05  1778.4      29.640      1.2350     3.38125E-03
1
 ------------------------------------------------------------------------------------------------------------
 
 SOLVING FOR TRANSPORT 

          SEQUENTIAL TRANSPORT ITERATION LOOP NUMBER    1
          -----------------------------------------------

 ------------------------------------------------------------------------------------------------------------------------
     1 CALLS TO SPARSE MATRIX SOLVER PACKAGE IN TRANSPORT TIME STEP     235 STRESS PERIOD       2 SPECIES  1

 TOTAL OF       1OUTER ITERATIONS
  MAXIMUM CHANGE FOR EACH ITERATION:
   MAX. CHANGE        NODE  MAX. CHANGE        NODE  MAX. CHANGE        NODE  MAX. CHANGE        NODE  MAX. CHANGE        NODE
 ------------------------------------------------------------------------------------------------------------------------------------
   0.37096    ,       1440
     TRANSPORT SOLUTION COMPLETE FOR COMPONENT SPECIES NUMBER    1
     ------------------------------------------------------------

 TRANSPORT SOLUTION COMPLETE FOR ALL SPECIES, SORTING OUTPUT FOR CONCENTRATIONS AND MASS BALANCE
 ----------------------------------------------------------------------------------------------------
     TRANSPORT OUTPUT FOR COMPONENT SPECIES NUMBER    1
     ------------------------------------------------------------
 -------------------------------------------------------------------------------------
 
 SOLVING FOR HEAD 

 Outer-Iteration  Inner-Iteration  Backtracking  Number of        Incoming       Outgoing      Cutoff     Maximum Head Change      Maximum Head Change
     Number           Count           Flag       Backtracks       Residual       Residual      Residual            Value               Location
        1                             0             0          0.953571E-02     0.953571E-02   -1.00000    
        1               13                                                                                      -0.255025E-04               1440           GWF-node number
        2                             0             0          0.146212E-07     0.146212E-07   -1.00000    
        2                1                                                                                      -0.973795E-07               3165           GWF-node number
     2 CALLS TO SPARSE MATRIX SOLVER PACKAGE  IN FLOW TIME STEP     236 STRESS PERIOD       2

 TOTAL OF       2OUTER ITERATIONS
  MAXIMUM CHANGE FOR EACH ITERATION:
   MAX. CHANGE        NODE  MAX. CHANGE        NODE  MAX. CHANGE        NODE  MAX. CHANGE        NODE  MAX. CHANGE        NODE
 ------------------------------------------------------------------------------------------------------------------------------------
  -0.25503E-04,       1440 -0.97380E-07,       3165

 NO OUTPUT CONTROL FOR STRESS PERIOD        2   TIME STEP      236



          TIME SUMMARY AT END OF TIME STEP       236 IN STRESS PERIOD         2
                    SECONDS     MINUTES      HOURS       DAYS        YEARS
                    -----------------------------------------------------------
   TIME STEP LENGTH  86.400      1.4400     2.40000E-02 1.00000E-03 2.73785E-06
 STRESS PERIOD TIME  20390.      339.84      5.6640     0.23600     6.46133E-04
         TOTAL TIME 1.06790E+05  1779.8      29.664      1.2360     3.38398E-03
1
 ------------------------------------------------------------------------------------------------------------
 
 SOLVING FOR TRANSPORT 

          SEQUENTIAL TRANSPORT ITERATION LOOP NUMBER    1
          -----------------------------------------------

 ------------------------------------------------------------------------------------------------------------------------
     1 CALLS TO SPARSE MATRIX SOLVER PACKAGE IN TRANSPORT TIME STEP     236 STRESS PERIOD       2 SPECIES  1

 TOTAL OF       1OUTER ITERATIONS
  MAXIMUM CHANGE FOR EACH ITERATION:
   MAX. CHANGE        NODE  MAX. CHANGE        NODE  MAX. CHANGE        NODE  MAX. CHANGE        NODE  MAX. CHANGE        NODE
 ------------------------------------------------------------------------------------------------------------------------------------
   0.40052    ,       1440
     TRANSPORT SOLUTION COMPLETE FOR COMPONENT SPECIES NUMBER    1
     ------------------------------------------------------------

 TRANSPORT SOLUTION COMPLETE FOR ALL SPECIES, SORTING OUTPUT FOR CONCENTRATIONS AND MASS BALANCE
 ----------------------------------------------------------------------------------------------------
     TRANSPORT OUTPUT FOR COMPONENT SPECIES NUMBER    1
     ------------------------------------------------------------
 -------------------------------------------------------------------------------------
 
 SOLVING FOR HEAD 

 Outer-Iteration  Inner-Iteration  Backtracking  Number of        Incoming       Outgoing      Cutoff     Maximum Head Change      Maximum Head Change
     Number           Count           Flag       Backtracks       Residual       Residual      Residual            Value               Location
        1                             0             0          0.896521E-02     0.896521E-02   -1.00000    
        1               11                                                                                       0.273000E-04               3156           GWF-node number
        2                             0             0          0.542782E-06     0.542782E-06   -1.00000    
        2                1                                                                                      -0.725102E-06               3125           GWF-node number
     2 CALLS TO SPARSE MATRIX SOLVER PACKAGE  IN FLOW TIME STEP     237 STRESS PERIOD       2

 TOTAL OF       2OUTER ITERATIONS
  MAXIMUM CHANGE FOR EACH ITERATION:
   MAX. CHANGE        NODE  MAX. CHANGE        NODE  MAX. CHANGE        NODE  MAX. CHANGE        NODE  MAX. CHANGE        NODE
 ------------------------------------------------------------------------------------------------------------------------------------
   0.27300E-04,       3156 -0.72510E-06,       3125

 NO OUTPUT CONTROL FOR STRESS PERIOD        2   TIME STEP      237



          TIME SUMMARY AT END OF TIME STEP       237 IN STRESS PERIOD         2
                    SECONDS     MINUTES      HOURS       DAYS        YEARS
                    -----------------------------------------------------------
   TIME STEP LENGTH  86.400      1.4400     2.40000E-02 1.00000E-03 2.73785E-06
 STRESS PERIOD TIME  20477.      341.28      5.6880     0.23700     6.48871E-04
         TOTAL TIME 1.06877E+05  1781.3      29.688      1.2370     3.38672E-03
1
 ------------------------------------------------------------------------------------------------------------
 
 SOLVING FOR TRANSPORT 

          SEQUENTIAL TRANSPORT ITERATION LOOP NUMBER    1
          -----------------------------------------------

 ------------------------------------------------------------------------------------------------------------------------
     1 CALLS TO SPARSE MATRIX SOLVER PACKAGE IN TRANSPORT TIME STEP     237 STRESS PERIOD       2 SPECIES  1

 TOTAL OF       1OUTER ITERATIONS
  MAXIMUM CHANGE FOR EACH ITERATION:
   MAX. CHANGE        NODE  MAX. CHANGE        NODE  MAX. CHANGE        NODE  MAX. CHANGE        NODE  MAX. CHANGE        NODE
 ------------------------------------------------------------------------------------------------------------------------------------
   0.43667    ,       1360
     TRANSPORT SOLUTION COMPLETE FOR COMPONENT SPECIES NUMBER    1
     ------------------------------------------------------------

 TRANSPORT SOLUTION COMPLETE FOR ALL SPECIES, SORTING OUTPUT FOR CONCENTRATIONS AND MASS BALANCE
 ----------------------------------------------------------------------------------------------------
     TRANSPORT OUTPUT FOR COMPONENT SPECIES NUMBER    1
     ------------------------------------------------------------
 -------------------------------------------------------------------------------------
 
 SOLVING FOR HEAD 

 Outer-Iteration  Inner-Iteration  Backtracking  Number of        Incoming       Outgoing      Cutoff     Maximum Head Change      Maximum Head Change
     Number           Count           Flag       Backtracks       Residual       Residual      Residual            Value               Location
        1                             0             0          0.904556E-02     0.904556E-02   -1.00000    
        1               14                                                                                       0.310130E-04               3076           GWF-node number
        2                             0             0          0.271160E-07     0.271160E-07   -1.00000    
        2                1                                                                                       0.179303E-06               1155           GWF-node number
     2 CALLS TO SPARSE MATRIX SOLVER PACKAGE  IN FLOW TIME STEP     238 STRESS PERIOD       2

 TOTAL OF       2OUTER ITERATIONS
  MAXIMUM CHANGE FOR EACH ITERATION:
   MAX. CHANGE        NODE  MAX. CHANGE        NODE  MAX. CHANGE        NODE  MAX. CHANGE        NODE  MAX. CHANGE        NODE
 ------------------------------------------------------------------------------------------------------------------------------------
   0.31013E-04,       3076  0.17930E-06,       1155

 NO OUTPUT CONTROL FOR STRESS PERIOD        2   TIME STEP      238



          TIME SUMMARY AT END OF TIME STEP       238 IN STRESS PERIOD         2
                    SECONDS     MINUTES      HOURS       DAYS        YEARS
                    -----------------------------------------------------------
   TIME STEP LENGTH  86.400      1.4400     2.40000E-02 1.00000E-03 2.73785E-06
 STRESS PERIOD TIME  20563.      342.72      5.7120     0.23800     6.51608E-04
         TOTAL TIME 1.06963E+05  1782.7      29.712      1.2380     3.38946E-03
1
 ------------------------------------------------------------------------------------------------------------
 
 SOLVING FOR TRANSPORT 

          SEQUENTIAL TRANSPORT ITERATION LOOP NUMBER    1
          -----------------------------------------------

 ------------------------------------------------------------------------------------------------------------------------
     1 CALLS TO SPARSE MATRIX SOLVER PACKAGE IN TRANSPORT TIME STEP     238 STRESS PERIOD       2 SPECIES  1

 TOTAL OF       1OUTER ITERATIONS
  MAXIMUM CHANGE FOR EACH ITERATION:
   MAX. CHANGE        NODE  MAX. CHANGE        NODE  MAX. CHANGE        NODE  MAX. CHANGE        NODE  MAX. CHANGE        NODE
 ------------------------------------------------------------------------------------------------------------------------------------
   0.41581    ,       1360
     TRANSPORT SOLUTION COMPLETE FOR COMPONENT SPECIES NUMBER    1
     ------------------------------------------------------------

 TRANSPORT SOLUTION COMPLETE FOR ALL SPECIES, SORTING OUTPUT FOR CONCENTRATIONS AND MASS BALANCE
 ----------------------------------------------------------------------------------------------------
     TRANSPORT OUTPUT FOR COMPONENT SPECIES NUMBER    1
     ------------------------------------------------------------
 -------------------------------------------------------------------------------------
 
 SOLVING FOR HEAD 

 Outer-Iteration  Inner-Iteration  Backtracking  Number of        Incoming       Outgoing      Cutoff     Maximum Head Change      Maximum Head Change
     Number           Count           Flag       Backtracks       Residual       Residual      Residual            Value               Location
        1                             0             0          0.865038E-02     0.865038E-02   -1.00000    
        1               11                                                                                       0.312382E-04               3156           GWF-node number
        2                             0             0          0.855052E-06     0.855052E-06   -1.00000    
        2                1                                                                                       0.806671E-06               1392           GWF-node number
     2 CALLS TO SPARSE MATRIX SOLVER PACKAGE  IN FLOW TIME STEP     239 STRESS PERIOD       2

 TOTAL OF       2OUTER ITERATIONS
  MAXIMUM CHANGE FOR EACH ITERATION:
   MAX. CHANGE        NODE  MAX. CHANGE        NODE  MAX. CHANGE        NODE  MAX. CHANGE        NODE  MAX. CHANGE        NODE
 ------------------------------------------------------------------------------------------------------------------------------------
   0.31238E-04,       3156  0.80667E-06,       1392

 NO OUTPUT CONTROL FOR STRESS PERIOD        2   TIME STEP      239



          TIME SUMMARY AT END OF TIME STEP       239 IN STRESS PERIOD         2
                    SECONDS     MINUTES      HOURS       DAYS        YEARS
                    -----------------------------------------------------------
   TIME STEP LENGTH  86.400      1.4400     2.40000E-02 1.00000E-03 2.73785E-06
 STRESS PERIOD TIME  20650.      344.16      5.7360     0.23900     6.54346E-04
         TOTAL TIME 1.07050E+05  1784.2      29.736      1.2390     3.39220E-03
1
 ------------------------------------------------------------------------------------------------------------
 
 SOLVING FOR TRANSPORT 

          SEQUENTIAL TRANSPORT ITERATION LOOP NUMBER    1
          -----------------------------------------------

 ------------------------------------------------------------------------------------------------------------------------
     1 CALLS TO SPARSE MATRIX SOLVER PACKAGE IN TRANSPORT TIME STEP     239 STRESS PERIOD       2 SPECIES  1

 TOTAL OF       1OUTER ITERATIONS
  MAXIMUM CHANGE FOR EACH ITERATION:
   MAX. CHANGE        NODE  MAX. CHANGE        NODE  MAX. CHANGE        NODE  MAX. CHANGE        NODE  MAX. CHANGE        NODE
 ------------------------------------------------------------------------------------------------------------------------------------
   0.37239    ,       1200
     TRANSPORT SOLUTION COMPLETE FOR COMPONENT SPECIES NUMBER    1
     ------------------------------------------------------------

 TRANSPORT SOLUTION COMPLETE FOR ALL SPECIES, SORTING OUTPUT FOR CONCENTRATIONS AND MASS BALANCE
 ----------------------------------------------------------------------------------------------------
     TRANSPORT OUTPUT FOR COMPONENT SPECIES NUMBER    1
     ------------------------------------------------------------
 -------------------------------------------------------------------------------------
 
 SOLVING FOR HEAD 

 Outer-Iteration  Inner-Iteration  Backtracking  Number of        Incoming       Outgoing      Cutoff     Maximum Head Change      Maximum Head Change
     Number           Count           Flag       Backtracks       Residual       Residual      Residual            Value               Location
        1                             0             0          0.683504E-02     0.683504E-02   -1.00000    
        1               12                                                                                       0.282320E-04               3156           GWF-node number
        2                             0             0          0.488830E-07     0.488830E-07   -1.00000    
        2                1                                                                                      -0.443122E-06               2961           GWF-node number
     2 CALLS TO SPARSE MATRIX SOLVER PACKAGE  IN FLOW TIME STEP     240 STRESS PERIOD       2

 TOTAL OF       2OUTER ITERATIONS
  MAXIMUM CHANGE FOR EACH ITERATION:
   MAX. CHANGE        NODE  MAX. CHANGE        NODE  MAX. CHANGE        NODE  MAX. CHANGE        NODE  MAX. CHANGE        NODE
 ------------------------------------------------------------------------------------------------------------------------------------
   0.28232E-04,       3156 -0.44312E-06,       2961

 NO OUTPUT CONTROL FOR STRESS PERIOD        2   TIME STEP      240



          TIME SUMMARY AT END OF TIME STEP       240 IN STRESS PERIOD         2
                    SECONDS     MINUTES      HOURS       DAYS        YEARS
                    -----------------------------------------------------------
   TIME STEP LENGTH  86.400      1.4400     2.40000E-02 1.00000E-03 2.73785E-06
 STRESS PERIOD TIME  20736.      345.60      5.7600     0.24000     6.57084E-04
         TOTAL TIME 1.07136E+05  1785.6      29.760      1.2400     3.39494E-03
1
 ------------------------------------------------------------------------------------------------------------
 
 SOLVING FOR TRANSPORT 

          SEQUENTIAL TRANSPORT ITERATION LOOP NUMBER    1
          -----------------------------------------------

 ------------------------------------------------------------------------------------------------------------------------
     1 CALLS TO SPARSE MATRIX SOLVER PACKAGE IN TRANSPORT TIME STEP     240 STRESS PERIOD       2 SPECIES  1

 TOTAL OF       1OUTER ITERATIONS
  MAXIMUM CHANGE FOR EACH ITERATION:
   MAX. CHANGE        NODE  MAX. CHANGE        NODE  MAX. CHANGE        NODE  MAX. CHANGE        NODE  MAX. CHANGE        NODE
 ------------------------------------------------------------------------------------------------------------------------------------
   0.36826    ,       1280
     TRANSPORT SOLUTION COMPLETE FOR COMPONENT SPECIES NUMBER    1
     ------------------------------------------------------------

 TRANSPORT SOLUTION COMPLETE FOR ALL SPECIES, SORTING OUTPUT FOR CONCENTRATIONS AND MASS BALANCE
 ----------------------------------------------------------------------------------------------------
     TRANSPORT OUTPUT FOR COMPONENT SPECIES NUMBER    1
     ------------------------------------------------------------
 -------------------------------------------------------------------------------------
 
 SOLVING FOR HEAD 

 Outer-Iteration  Inner-Iteration  Backtracking  Number of        Incoming       Outgoing      Cutoff     Maximum Head Change      Maximum Head Change
     Number           Count           Flag       Backtracks       Residual       Residual      Residual            Value               Location
        1                             0             0          0.714731E-02     0.714731E-02   -1.00000    
        1               12                                                                                       0.274140E-04               3156           GWF-node number
        2                             0             0          0.735551E-06     0.735551E-06   -1.00000    
        2                3                                                                                       0.341401E-06               1172           GWF-node number
     2 CALLS TO SPARSE MATRIX SOLVER PACKAGE  IN FLOW TIME STEP     241 STRESS PERIOD       2

 TOTAL OF       2OUTER ITERATIONS
  MAXIMUM CHANGE FOR EACH ITERATION:
   MAX. CHANGE        NODE  MAX. CHANGE        NODE  MAX. CHANGE        NODE  MAX. CHANGE        NODE  MAX. CHANGE        NODE
 ------------------------------------------------------------------------------------------------------------------------------------
   0.27414E-04,       3156  0.34140E-06,       1172

 NO OUTPUT CONTROL FOR STRESS PERIOD        2   TIME STEP      241



          TIME SUMMARY AT END OF TIME STEP       241 IN STRESS PERIOD         2
                    SECONDS     MINUTES      HOURS       DAYS        YEARS
                    -----------------------------------------------------------
   TIME STEP LENGTH  86.400      1.4400     2.40000E-02 1.00000E-03 2.73785E-06
 STRESS PERIOD TIME  20822.      347.04      5.7840     0.24100     6.59822E-04
         TOTAL TIME 1.07222E+05  1787.0      29.784      1.2410     3.39767E-03
1
 ------------------------------------------------------------------------------------------------------------
 
 SOLVING FOR TRANSPORT 

          SEQUENTIAL TRANSPORT ITERATION LOOP NUMBER    1
          -----------------------------------------------

 ------------------------------------------------------------------------------------------------------------------------
     1 CALLS TO SPARSE MATRIX SOLVER PACKAGE IN TRANSPORT TIME STEP     241 STRESS PERIOD       2 SPECIES  1

 TOTAL OF       1OUTER ITERATIONS
  MAXIMUM CHANGE FOR EACH ITERATION:
   MAX. CHANGE        NODE  MAX. CHANGE        NODE  MAX. CHANGE        NODE  MAX. CHANGE        NODE  MAX. CHANGE        NODE
 ------------------------------------------------------------------------------------------------------------------------------------
   0.31453    ,       1120
     TRANSPORT SOLUTION COMPLETE FOR COMPONENT SPECIES NUMBER    1
     ------------------------------------------------------------

 TRANSPORT SOLUTION COMPLETE FOR ALL SPECIES, SORTING OUTPUT FOR CONCENTRATIONS AND MASS BALANCE
 ----------------------------------------------------------------------------------------------------
     TRANSPORT OUTPUT FOR COMPONENT SPECIES NUMBER    1
     ------------------------------------------------------------
 -------------------------------------------------------------------------------------
 
 SOLVING FOR HEAD 

 Outer-Iteration  Inner-Iteration  Backtracking  Number of        Incoming       Outgoing      Cutoff     Maximum Head Change      Maximum Head Change
     Number           Count           Flag       Backtracks       Residual       Residual      Residual            Value               Location
        1                             0             0          0.720234E-02     0.720234E-02   -1.00000    
        1               12                                                                                       0.228416E-04               3156           GWF-node number
        2                             0             0          0.440735E-06     0.440735E-06   -1.00000    
        2                1                                                                                       0.608829E-06               3127           GWF-node number
     2 CALLS TO SPARSE MATRIX SOLVER PACKAGE  IN FLOW TIME STEP     242 STRESS PERIOD       2

 TOTAL OF       2OUTER ITERATIONS
  MAXIMUM CHANGE FOR EACH ITERATION:
   MAX. CHANGE        NODE  MAX. CHANGE        NODE  MAX. CHANGE        NODE  MAX. CHANGE        NODE  MAX. CHANGE        NODE
 ------------------------------------------------------------------------------------------------------------------------------------
   0.22842E-04,       3156  0.60883E-06,       3127

 NO OUTPUT CONTROL FOR STRESS PERIOD        2   TIME STEP      242



          TIME SUMMARY AT END OF TIME STEP       242 IN STRESS PERIOD         2
                    SECONDS     MINUTES      HOURS       DAYS        YEARS
                    -----------------------------------------------------------
   TIME STEP LENGTH  86.400      1.4400     2.40000E-02 1.00000E-03 2.73785E-06
 STRESS PERIOD TIME  20909.      348.48      5.8080     0.24200     6.62560E-04
         TOTAL TIME 1.07309E+05  1788.5      29.808      1.2420     3.40041E-03
1
 ------------------------------------------------------------------------------------------------------------
 
 SOLVING FOR TRANSPORT 

          SEQUENTIAL TRANSPORT ITERATION LOOP NUMBER    1
          -----------------------------------------------

 ------------------------------------------------------------------------------------------------------------------------
     1 CALLS TO SPARSE MATRIX SOLVER PACKAGE IN TRANSPORT TIME STEP     242 STRESS PERIOD       2 SPECIES  1

 TOTAL OF       1OUTER ITERATIONS
  MAXIMUM CHANGE FOR EACH ITERATION:
   MAX. CHANGE        NODE  MAX. CHANGE        NODE  MAX. CHANGE        NODE  MAX. CHANGE        NODE  MAX. CHANGE        NODE
 ------------------------------------------------------------------------------------------------------------------------------------
   0.26199    ,       1040
     TRANSPORT SOLUTION COMPLETE FOR COMPONENT SPECIES NUMBER    1
     ------------------------------------------------------------

 TRANSPORT SOLUTION COMPLETE FOR ALL SPECIES, SORTING OUTPUT FOR CONCENTRATIONS AND MASS BALANCE
 ----------------------------------------------------------------------------------------------------
     TRANSPORT OUTPUT FOR COMPONENT SPECIES NUMBER    1
     ------------------------------------------------------------
 -------------------------------------------------------------------------------------
 
 SOLVING FOR HEAD 

 Outer-Iteration  Inner-Iteration  Backtracking  Number of        Incoming       Outgoing      Cutoff     Maximum Head Change      Maximum Head Change
     Number           Count           Flag       Backtracks       Residual       Residual      Residual            Value               Location
        1                             0             0          0.496953E-02     0.496953E-02   -1.00000    
        1                9                                                                                       0.195813E-04               3156           GWF-node number
        2                             0             0          0.506955E-05     0.506955E-05   -1.00000    
        2                4                                                                                       0.769727E-06               1432           GWF-node number
     2 CALLS TO SPARSE MATRIX SOLVER PACKAGE  IN FLOW TIME STEP     243 STRESS PERIOD       2

 TOTAL OF       2OUTER ITERATIONS
  MAXIMUM CHANGE FOR EACH ITERATION:
   MAX. CHANGE        NODE  MAX. CHANGE        NODE  MAX. CHANGE        NODE  MAX. CHANGE        NODE  MAX. CHANGE        NODE
 ------------------------------------------------------------------------------------------------------------------------------------
   0.19581E-04,       3156  0.76973E-06,       1432

 NO OUTPUT CONTROL FOR STRESS PERIOD        2   TIME STEP      243



          TIME SUMMARY AT END OF TIME STEP       243 IN STRESS PERIOD         2
                    SECONDS     MINUTES      HOURS       DAYS        YEARS
                    -----------------------------------------------------------
   TIME STEP LENGTH  86.400      1.4400     2.40000E-02 1.00000E-03 2.73785E-06
 STRESS PERIOD TIME  20995.      349.92      5.8320     0.24300     6.65298E-04
         TOTAL TIME 1.07395E+05  1789.9      29.832      1.2430     3.40315E-03
1
 ------------------------------------------------------------------------------------------------------------
 
 SOLVING FOR TRANSPORT 

          SEQUENTIAL TRANSPORT ITERATION LOOP NUMBER    1
          -----------------------------------------------

 ------------------------------------------------------------------------------------------------------------------------
     1 CALLS TO SPARSE MATRIX SOLVER PACKAGE IN TRANSPORT TIME STEP     243 STRESS PERIOD       2 SPECIES  1

 TOTAL OF       1OUTER ITERATIONS
  MAXIMUM CHANGE FOR EACH ITERATION:
   MAX. CHANGE        NODE  MAX. CHANGE        NODE  MAX. CHANGE        NODE  MAX. CHANGE        NODE  MAX. CHANGE        NODE
 ------------------------------------------------------------------------------------------------------------------------------------
   0.20515    ,        960
     TRANSPORT SOLUTION COMPLETE FOR COMPONENT SPECIES NUMBER    1
     ------------------------------------------------------------

 TRANSPORT SOLUTION COMPLETE FOR ALL SPECIES, SORTING OUTPUT FOR CONCENTRATIONS AND MASS BALANCE
 ----------------------------------------------------------------------------------------------------
     TRANSPORT OUTPUT FOR COMPONENT SPECIES NUMBER    1
     ------------------------------------------------------------
 -------------------------------------------------------------------------------------
 
 SOLVING FOR HEAD 

 Outer-Iteration  Inner-Iteration  Backtracking  Number of        Incoming       Outgoing      Cutoff     Maximum Head Change      Maximum Head Change
     Number           Count           Flag       Backtracks       Residual       Residual      Residual            Value               Location
        1                             0             0          0.311889E-02     0.311889E-02   -1.00000    
        1               12                                                                                       0.145558E-04               3156           GWF-node number
        2                             0             0          0.571474E-07     0.571474E-07   -1.00000    
        2                1                                                                                      -0.140736E-06               2401           GWF-node number
     2 CALLS TO SPARSE MATRIX SOLVER PACKAGE  IN FLOW TIME STEP     244 STRESS PERIOD       2

 TOTAL OF       2OUTER ITERATIONS
  MAXIMUM CHANGE FOR EACH ITERATION:
   MAX. CHANGE        NODE  MAX. CHANGE        NODE  MAX. CHANGE        NODE  MAX. CHANGE        NODE  MAX. CHANGE        NODE
 ------------------------------------------------------------------------------------------------------------------------------------
   0.14556E-04,       3156 -0.14074E-06,       2401

 NO OUTPUT CONTROL FOR STRESS PERIOD        2   TIME STEP      244



          TIME SUMMARY AT END OF TIME STEP       244 IN STRESS PERIOD         2
                    SECONDS     MINUTES      HOURS       DAYS        YEARS
                    -----------------------------------------------------------
   TIME STEP LENGTH  86.400      1.4400     2.40000E-02 1.00000E-03 2.73785E-06
 STRESS PERIOD TIME  21082.      351.36      5.8560     0.24400     6.68036E-04
         TOTAL TIME 1.07482E+05  1791.4      29.856      1.2440     3.40589E-03
1
 ------------------------------------------------------------------------------------------------------------
 
 SOLVING FOR TRANSPORT 

          SEQUENTIAL TRANSPORT ITERATION LOOP NUMBER    1
          -----------------------------------------------

 ------------------------------------------------------------------------------------------------------------------------
     1 CALLS TO SPARSE MATRIX SOLVER PACKAGE IN TRANSPORT TIME STEP     244 STRESS PERIOD       2 SPECIES  1

 TOTAL OF       1OUTER ITERATIONS
  MAXIMUM CHANGE FOR EACH ITERATION:
   MAX. CHANGE        NODE  MAX. CHANGE        NODE  MAX. CHANGE        NODE  MAX. CHANGE        NODE  MAX. CHANGE        NODE
 ------------------------------------------------------------------------------------------------------------------------------------
   0.15042    ,        880
     TRANSPORT SOLUTION COMPLETE FOR COMPONENT SPECIES NUMBER    1
     ------------------------------------------------------------

 TRANSPORT SOLUTION COMPLETE FOR ALL SPECIES, SORTING OUTPUT FOR CONCENTRATIONS AND MASS BALANCE
 ----------------------------------------------------------------------------------------------------
     TRANSPORT OUTPUT FOR COMPONENT SPECIES NUMBER    1
     ------------------------------------------------------------
 -------------------------------------------------------------------------------------
 
 SOLVING FOR HEAD 

 Outer-Iteration  Inner-Iteration  Backtracking  Number of        Incoming       Outgoing      Cutoff     Maximum Head Change      Maximum Head Change
     Number           Count           Flag       Backtracks       Residual       Residual      Residual            Value               Location
        1                             0             0          0.267003E-02     0.267003E-02   -1.00000    
        1               10                                                                                       0.167990E-04               1438           GWF-node number
        2                             0             0          0.184541E-06     0.184541E-06   -1.00000    
        2                1                                                                                      -0.419312E-06               2414           GWF-node number
     2 CALLS TO SPARSE MATRIX SOLVER PACKAGE  IN FLOW TIME STEP     245 STRESS PERIOD       2

 TOTAL OF       2OUTER ITERATIONS
  MAXIMUM CHANGE FOR EACH ITERATION:
   MAX. CHANGE        NODE  MAX. CHANGE        NODE  MAX. CHANGE        NODE  MAX. CHANGE        NODE  MAX. CHANGE        NODE
 ------------------------------------------------------------------------------------------------------------------------------------
   0.16799E-04,       1438 -0.41931E-06,       2414

 NO OUTPUT CONTROL FOR STRESS PERIOD        2   TIME STEP      245



          TIME SUMMARY AT END OF TIME STEP       245 IN STRESS PERIOD         2
                    SECONDS     MINUTES      HOURS       DAYS        YEARS
                    -----------------------------------------------------------
   TIME STEP LENGTH  86.400      1.4400     2.40000E-02 1.00000E-03 2.73785E-06
 STRESS PERIOD TIME  21168.      352.80      5.8800     0.24500     6.70773E-04
         TOTAL TIME 1.07568E+05  1792.8      29.880      1.2450     3.40862E-03
1
 ------------------------------------------------------------------------------------------------------------
 
 SOLVING FOR TRANSPORT 

          SEQUENTIAL TRANSPORT ITERATION LOOP NUMBER    1
          -----------------------------------------------

 ------------------------------------------------------------------------------------------------------------------------
     1 CALLS TO SPARSE MATRIX SOLVER PACKAGE IN TRANSPORT TIME STEP     245 STRESS PERIOD       2 SPECIES  1

 TOTAL OF       1OUTER ITERATIONS
  MAXIMUM CHANGE FOR EACH ITERATION:
   MAX. CHANGE        NODE  MAX. CHANGE        NODE  MAX. CHANGE        NODE  MAX. CHANGE        NODE  MAX. CHANGE        NODE
 ------------------------------------------------------------------------------------------------------------------------------------
  -0.17029    ,       1520
     TRANSPORT SOLUTION COMPLETE FOR COMPONENT SPECIES NUMBER    1
     ------------------------------------------------------------

 TRANSPORT SOLUTION COMPLETE FOR ALL SPECIES, SORTING OUTPUT FOR CONCENTRATIONS AND MASS BALANCE
 ----------------------------------------------------------------------------------------------------
     TRANSPORT OUTPUT FOR COMPONENT SPECIES NUMBER    1
     ------------------------------------------------------------
 -------------------------------------------------------------------------------------
 
 SOLVING FOR HEAD 

 Outer-Iteration  Inner-Iteration  Backtracking  Number of        Incoming       Outgoing      Cutoff     Maximum Head Change      Maximum Head Change
     Number           Count           Flag       Backtracks       Residual       Residual      Residual            Value               Location
        1                             0             0          0.333450E-02     0.333450E-02   -1.00000    
        1               10                                                                                       0.190283E-04               1438           GWF-node number
        2                             0             0          0.269791E-06     0.269791E-06   -1.00000    
        2                1                                                                                      -0.465838E-06               2925           GWF-node number
     2 CALLS TO SPARSE MATRIX SOLVER PACKAGE  IN FLOW TIME STEP     246 STRESS PERIOD       2

 TOTAL OF       2OUTER ITERATIONS
  MAXIMUM CHANGE FOR EACH ITERATION:
   MAX. CHANGE        NODE  MAX. CHANGE        NODE  MAX. CHANGE        NODE  MAX. CHANGE        NODE  MAX. CHANGE        NODE
 ------------------------------------------------------------------------------------------------------------------------------------
   0.19028E-04,       1438 -0.46584E-06,       2925

 NO OUTPUT CONTROL FOR STRESS PERIOD        2   TIME STEP      246



          TIME SUMMARY AT END OF TIME STEP       246 IN STRESS PERIOD         2
                    SECONDS     MINUTES      HOURS       DAYS        YEARS
                    -----------------------------------------------------------
   TIME STEP LENGTH  86.400      1.4400     2.40000E-02 1.00000E-03 2.73785E-06
 STRESS PERIOD TIME  21254.      354.24      5.9040     0.24600     6.73511E-04
         TOTAL TIME 1.07654E+05  1794.2      29.904      1.2460     3.41136E-03
1
 ------------------------------------------------------------------------------------------------------------
 
 SOLVING FOR TRANSPORT 

          SEQUENTIAL TRANSPORT ITERATION LOOP NUMBER    1
          -----------------------------------------------

 ------------------------------------------------------------------------------------------------------------------------
     1 CALLS TO SPARSE MATRIX SOLVER PACKAGE IN TRANSPORT TIME STEP     246 STRESS PERIOD       2 SPECIES  1

 TOTAL OF       1OUTER ITERATIONS
  MAXIMUM CHANGE FOR EACH ITERATION:
   MAX. CHANGE        NODE  MAX. CHANGE        NODE  MAX. CHANGE        NODE  MAX. CHANGE        NODE  MAX. CHANGE        NODE
 ------------------------------------------------------------------------------------------------------------------------------------
  -0.20895    ,       1520
     TRANSPORT SOLUTION COMPLETE FOR COMPONENT SPECIES NUMBER    1
     ------------------------------------------------------------

 TRANSPORT SOLUTION COMPLETE FOR ALL SPECIES, SORTING OUTPUT FOR CONCENTRATIONS AND MASS BALANCE
 ----------------------------------------------------------------------------------------------------
     TRANSPORT OUTPUT FOR COMPONENT SPECIES NUMBER    1
     ------------------------------------------------------------
 -------------------------------------------------------------------------------------
 
 SOLVING FOR HEAD 

 Outer-Iteration  Inner-Iteration  Backtracking  Number of        Incoming       Outgoing      Cutoff     Maximum Head Change      Maximum Head Change
     Number           Count           Flag       Backtracks       Residual       Residual      Residual            Value               Location
        1                             0             0          0.435489E-02     0.435489E-02   -1.00000    
        1               13                                                                                       0.196232E-04               1438           GWF-node number
        2                             0             0          0.168244E-07     0.168244E-07   -1.00000    
        2                1                                                                                       0.103596E-06               1301           GWF-node number
     2 CALLS TO SPARSE MATRIX SOLVER PACKAGE  IN FLOW TIME STEP     247 STRESS PERIOD       2

 TOTAL OF       2OUTER ITERATIONS
  MAXIMUM CHANGE FOR EACH ITERATION:
   MAX. CHANGE        NODE  MAX. CHANGE        NODE  MAX. CHANGE        NODE  MAX. CHANGE        NODE  MAX. CHANGE        NODE
 ------------------------------------------------------------------------------------------------------------------------------------
   0.19623E-04,       1438  0.10360E-06,       1301

 NO OUTPUT CONTROL FOR STRESS PERIOD        2   TIME STEP      247



          TIME SUMMARY AT END OF TIME STEP       247 IN STRESS PERIOD         2
                    SECONDS     MINUTES      HOURS       DAYS        YEARS
                    -----------------------------------------------------------
   TIME STEP LENGTH  86.400      1.4400     2.40000E-02 1.00000E-03 2.73785E-06
 STRESS PERIOD TIME  21341.      355.68      5.9280     0.24700     6.76249E-04
         TOTAL TIME 1.07741E+05  1795.7      29.928      1.2470     3.41410E-03
1
 ------------------------------------------------------------------------------------------------------------
 
 SOLVING FOR TRANSPORT 

          SEQUENTIAL TRANSPORT ITERATION LOOP NUMBER    1
          -----------------------------------------------

 ------------------------------------------------------------------------------------------------------------------------
     1 CALLS TO SPARSE MATRIX SOLVER PACKAGE IN TRANSPORT TIME STEP     247 STRESS PERIOD       2 SPECIES  1

 TOTAL OF       1OUTER ITERATIONS
  MAXIMUM CHANGE FOR EACH ITERATION:
   MAX. CHANGE        NODE  MAX. CHANGE        NODE  MAX. CHANGE        NODE  MAX. CHANGE        NODE  MAX. CHANGE        NODE
 ------------------------------------------------------------------------------------------------------------------------------------
  -0.25027    ,       1440
     TRANSPORT SOLUTION COMPLETE FOR COMPONENT SPECIES NUMBER    1
     ------------------------------------------------------------

 TRANSPORT SOLUTION COMPLETE FOR ALL SPECIES, SORTING OUTPUT FOR CONCENTRATIONS AND MASS BALANCE
 ----------------------------------------------------------------------------------------------------
     TRANSPORT OUTPUT FOR COMPONENT SPECIES NUMBER    1
     ------------------------------------------------------------
 -------------------------------------------------------------------------------------
 
 SOLVING FOR HEAD 

 Outer-Iteration  Inner-Iteration  Backtracking  Number of        Incoming       Outgoing      Cutoff     Maximum Head Change      Maximum Head Change
     Number           Count           Flag       Backtracks       Residual       Residual      Residual            Value               Location
        1                             0             0          0.552685E-02     0.552685E-02   -1.00000    
        1               11                                                                                       0.192618E-04               1438           GWF-node number
        2                             0             0          0.148960E-06     0.148960E-06   -1.00000    
        2                1                                                                                       0.346990E-06               3122           GWF-node number
     2 CALLS TO SPARSE MATRIX SOLVER PACKAGE  IN FLOW TIME STEP     248 STRESS PERIOD       2

 TOTAL OF       2OUTER ITERATIONS
  MAXIMUM CHANGE FOR EACH ITERATION:
   MAX. CHANGE        NODE  MAX. CHANGE        NODE  MAX. CHANGE        NODE  MAX. CHANGE        NODE  MAX. CHANGE        NODE
 ------------------------------------------------------------------------------------------------------------------------------------
   0.19262E-04,       1438  0.34699E-06,       3122

 NO OUTPUT CONTROL FOR STRESS PERIOD        2   TIME STEP      248



          TIME SUMMARY AT END OF TIME STEP       248 IN STRESS PERIOD         2
                    SECONDS     MINUTES      HOURS       DAYS        YEARS
                    -----------------------------------------------------------
   TIME STEP LENGTH  86.400      1.4400     2.40000E-02 1.00000E-03 2.73785E-06
 STRESS PERIOD TIME  21427.      357.12      5.9520     0.24800     6.78987E-04
         TOTAL TIME 1.07827E+05  1797.1      29.952      1.2480     3.41684E-03
1
 ------------------------------------------------------------------------------------------------------------
 
 SOLVING FOR TRANSPORT 

          SEQUENTIAL TRANSPORT ITERATION LOOP NUMBER    1
          -----------------------------------------------

 ------------------------------------------------------------------------------------------------------------------------
     1 CALLS TO SPARSE MATRIX SOLVER PACKAGE IN TRANSPORT TIME STEP     248 STRESS PERIOD       2 SPECIES  1

 TOTAL OF       1OUTER ITERATIONS
  MAXIMUM CHANGE FOR EACH ITERATION:
   MAX. CHANGE        NODE  MAX. CHANGE        NODE  MAX. CHANGE        NODE  MAX. CHANGE        NODE  MAX. CHANGE        NODE
 ------------------------------------------------------------------------------------------------------------------------------------
  -0.30282    ,       1440
     TRANSPORT SOLUTION COMPLETE FOR COMPONENT SPECIES NUMBER    1
     ------------------------------------------------------------

 TRANSPORT SOLUTION COMPLETE FOR ALL SPECIES, SORTING OUTPUT FOR CONCENTRATIONS AND MASS BALANCE
 ----------------------------------------------------------------------------------------------------
     TRANSPORT OUTPUT FOR COMPONENT SPECIES NUMBER    1
     ------------------------------------------------------------
 -------------------------------------------------------------------------------------
 
 SOLVING FOR HEAD 

 Outer-Iteration  Inner-Iteration  Backtracking  Number of        Incoming       Outgoing      Cutoff     Maximum Head Change      Maximum Head Change
     Number           Count           Flag       Backtracks       Residual       Residual      Residual            Value               Location
        1                             0             0          0.803841E-02     0.803841E-02   -1.00000    
        1               11                                                                                       0.246537E-04               1439           GWF-node number
        2                             0             0          0.259327E-06     0.259327E-06   -1.00000    
        2                1                                                                                       0.555123E-06               3123           GWF-node number
     2 CALLS TO SPARSE MATRIX SOLVER PACKAGE  IN FLOW TIME STEP     249 STRESS PERIOD       2

 TOTAL OF       2OUTER ITERATIONS
  MAXIMUM CHANGE FOR EACH ITERATION:
   MAX. CHANGE        NODE  MAX. CHANGE        NODE  MAX. CHANGE        NODE  MAX. CHANGE        NODE  MAX. CHANGE        NODE
 ------------------------------------------------------------------------------------------------------------------------------------
   0.24654E-04,       1439  0.55512E-06,       3123

 NO OUTPUT CONTROL FOR STRESS PERIOD        2   TIME STEP      249



          TIME SUMMARY AT END OF TIME STEP       249 IN STRESS PERIOD         2
                    SECONDS     MINUTES      HOURS       DAYS        YEARS
                    -----------------------------------------------------------
   TIME STEP LENGTH  86.400      1.4400     2.40000E-02 1.00000E-03 2.73785E-06
 STRESS PERIOD TIME  21514.      358.56      5.9760     0.24900     6.81725E-04
         TOTAL TIME 1.07914E+05  1798.6      29.976      1.2490     3.41958E-03
1
 ------------------------------------------------------------------------------------------------------------
 
 SOLVING FOR TRANSPORT 

          SEQUENTIAL TRANSPORT ITERATION LOOP NUMBER    1
          -----------------------------------------------

 ------------------------------------------------------------------------------------------------------------------------
     1 CALLS TO SPARSE MATRIX SOLVER PACKAGE IN TRANSPORT TIME STEP     249 STRESS PERIOD       2 SPECIES  1

 TOTAL OF       1OUTER ITERATIONS
  MAXIMUM CHANGE FOR EACH ITERATION:
   MAX. CHANGE        NODE  MAX. CHANGE        NODE  MAX. CHANGE        NODE  MAX. CHANGE        NODE  MAX. CHANGE        NODE
 ------------------------------------------------------------------------------------------------------------------------------------
  -0.27652    ,       1440
     TRANSPORT SOLUTION COMPLETE FOR COMPONENT SPECIES NUMBER    1
     ------------------------------------------------------------

 TRANSPORT SOLUTION COMPLETE FOR ALL SPECIES, SORTING OUTPUT FOR CONCENTRATIONS AND MASS BALANCE
 ----------------------------------------------------------------------------------------------------
     TRANSPORT OUTPUT FOR COMPONENT SPECIES NUMBER    1
     ------------------------------------------------------------
 -------------------------------------------------------------------------------------
 
 SOLVING FOR HEAD 

 Outer-Iteration  Inner-Iteration  Backtracking  Number of        Incoming       Outgoing      Cutoff     Maximum Head Change      Maximum Head Change
     Number           Count           Flag       Backtracks       Residual       Residual      Residual            Value               Location
        1                             0             0          0.732600E-02     0.732600E-02   -1.00000    
        1                8                                                                                       0.279755E-04               1359           GWF-node number
        2                             0             0          0.773963E-05     0.773963E-05   -1.00000    
        2                3                                                                                      -0.383297E-05               1448           GWF-node number
     2 CALLS TO SPARSE MATRIX SOLVER PACKAGE  IN FLOW TIME STEP     250 STRESS PERIOD       2

 TOTAL OF       2OUTER ITERATIONS
  MAXIMUM CHANGE FOR EACH ITERATION:
   MAX. CHANGE        NODE  MAX. CHANGE        NODE  MAX. CHANGE        NODE  MAX. CHANGE        NODE  MAX. CHANGE        NODE
 ------------------------------------------------------------------------------------------------------------------------------------
   0.27976E-04,       1359 -0.38330E-05,       1448

 NO OUTPUT CONTROL FOR STRESS PERIOD        2   TIME STEP      250



          TIME SUMMARY AT END OF TIME STEP       250 IN STRESS PERIOD         2
                    SECONDS     MINUTES      HOURS       DAYS        YEARS
                    -----------------------------------------------------------
   TIME STEP LENGTH  86.400      1.4400     2.40000E-02 1.00000E-03 2.73785E-06
 STRESS PERIOD TIME  21600.      360.00      6.0000     0.25000     6.84463E-04
         TOTAL TIME 1.08000E+05  1800.0      30.000      1.2500     3.42231E-03
1
 ------------------------------------------------------------------------------------------------------------
 
 SOLVING FOR TRANSPORT 

          SEQUENTIAL TRANSPORT ITERATION LOOP NUMBER    1
          -----------------------------------------------

 ------------------------------------------------------------------------------------------------------------------------
     1 CALLS TO SPARSE MATRIX SOLVER PACKAGE IN TRANSPORT TIME STEP     250 STRESS PERIOD       2 SPECIES  1

 TOTAL OF       1OUTER ITERATIONS
  MAXIMUM CHANGE FOR EACH ITERATION:
   MAX. CHANGE        NODE  MAX. CHANGE        NODE  MAX. CHANGE        NODE  MAX. CHANGE        NODE  MAX. CHANGE        NODE
 ------------------------------------------------------------------------------------------------------------------------------------
  -0.31900    ,       1360
     TRANSPORT SOLUTION COMPLETE FOR COMPONENT SPECIES NUMBER    1
     ------------------------------------------------------------

 TRANSPORT SOLUTION COMPLETE FOR ALL SPECIES, SORTING OUTPUT FOR CONCENTRATIONS AND MASS BALANCE
 ----------------------------------------------------------------------------------------------------
     TRANSPORT OUTPUT FOR COMPONENT SPECIES NUMBER    1
     ------------------------------------------------------------
 -------------------------------------------------------------------------------------
 
 SOLVING FOR HEAD 

 Outer-Iteration  Inner-Iteration  Backtracking  Number of        Incoming       Outgoing      Cutoff     Maximum Head Change      Maximum Head Change
     Number           Count           Flag       Backtracks       Residual       Residual      Residual            Value               Location
        1                             0             0          0.907598E-02     0.907598E-02   -1.00000    
        1               11                                                                                       0.279176E-04               1359           GWF-node number
        2                             0             0          0.316313E-06     0.316313E-06   -1.00000    
        2                1                                                                                       0.231094E-06               1366           GWF-node number
     2 CALLS TO SPARSE MATRIX SOLVER PACKAGE  IN FLOW TIME STEP     251 STRESS PERIOD       2

 TOTAL OF       2OUTER ITERATIONS
  MAXIMUM CHANGE FOR EACH ITERATION:
   MAX. CHANGE        NODE  MAX. CHANGE        NODE  MAX. CHANGE        NODE  MAX. CHANGE        NODE  MAX. CHANGE        NODE
 ------------------------------------------------------------------------------------------------------------------------------------
   0.27918E-04,       1359  0.23109E-06,       1366

 NO OUTPUT CONTROL FOR STRESS PERIOD        2   TIME STEP      251



          TIME SUMMARY AT END OF TIME STEP       251 IN STRESS PERIOD         2
                    SECONDS     MINUTES      HOURS       DAYS        YEARS
                    -----------------------------------------------------------
   TIME STEP LENGTH  86.400      1.4400     2.40000E-02 1.00000E-03 2.73785E-06
 STRESS PERIOD TIME  21686.      361.44      6.0240     0.25100     6.87201E-04
         TOTAL TIME 1.08086E+05  1801.4      30.024      1.2510     3.42505E-03
1
 ------------------------------------------------------------------------------------------------------------
 
 SOLVING FOR TRANSPORT 

          SEQUENTIAL TRANSPORT ITERATION LOOP NUMBER    1
          -----------------------------------------------

 ------------------------------------------------------------------------------------------------------------------------
     1 CALLS TO SPARSE MATRIX SOLVER PACKAGE IN TRANSPORT TIME STEP     251 STRESS PERIOD       2 SPECIES  1

 TOTAL OF       1OUTER ITERATIONS
  MAXIMUM CHANGE FOR EACH ITERATION:
   MAX. CHANGE        NODE  MAX. CHANGE        NODE  MAX. CHANGE        NODE  MAX. CHANGE        NODE  MAX. CHANGE        NODE
 ------------------------------------------------------------------------------------------------------------------------------------
  -0.44770    ,       1360
     TRANSPORT SOLUTION COMPLETE FOR COMPONENT SPECIES NUMBER    1
     ------------------------------------------------------------

 TRANSPORT SOLUTION COMPLETE FOR ALL SPECIES, SORTING OUTPUT FOR CONCENTRATIONS AND MASS BALANCE
 ----------------------------------------------------------------------------------------------------
     TRANSPORT OUTPUT FOR COMPONENT SPECIES NUMBER    1
     ------------------------------------------------------------
 -------------------------------------------------------------------------------------
 
 SOLVING FOR HEAD 

 Outer-Iteration  Inner-Iteration  Backtracking  Number of        Incoming       Outgoing      Cutoff     Maximum Head Change      Maximum Head Change
     Number           Count           Flag       Backtracks       Residual       Residual      Residual            Value               Location
        1                             0             0          0.262259E-01     0.262259E-01   -1.00000    
        1                9                                                                                       0.405852E-04               1360           GWF-node number
        2                             0             0          0.302777E-05     0.302777E-05   -1.00000    
        2                2                                                                                       0.288629E-05               2161           GWF-node number
     2 CALLS TO SPARSE MATRIX SOLVER PACKAGE  IN FLOW TIME STEP     252 STRESS PERIOD       2

 TOTAL OF       2OUTER ITERATIONS
  MAXIMUM CHANGE FOR EACH ITERATION:
   MAX. CHANGE        NODE  MAX. CHANGE        NODE  MAX. CHANGE        NODE  MAX. CHANGE        NODE  MAX. CHANGE        NODE
 ------------------------------------------------------------------------------------------------------------------------------------
   0.40585E-04,       1360  0.28863E-05,       2161

 NO OUTPUT CONTROL FOR STRESS PERIOD        2   TIME STEP      252



          TIME SUMMARY AT END OF TIME STEP       252 IN STRESS PERIOD         2
                    SECONDS     MINUTES      HOURS       DAYS        YEARS
                    -----------------------------------------------------------
   TIME STEP LENGTH  86.400      1.4400     2.40000E-02 1.00000E-03 2.73785E-06
 STRESS PERIOD TIME  21773.      362.88      6.0480     0.25200     6.89938E-04
         TOTAL TIME 1.08173E+05  1802.9      30.048      1.2520     3.42779E-03
1
 ------------------------------------------------------------------------------------------------------------
 
 SOLVING FOR TRANSPORT 

          SEQUENTIAL TRANSPORT ITERATION LOOP NUMBER    1
          -----------------------------------------------

 ------------------------------------------------------------------------------------------------------------------------
     1 CALLS TO SPARSE MATRIX SOLVER PACKAGE IN TRANSPORT TIME STEP     252 STRESS PERIOD       2 SPECIES  1

 TOTAL OF       1OUTER ITERATIONS
  MAXIMUM CHANGE FOR EACH ITERATION:
   MAX. CHANGE        NODE  MAX. CHANGE        NODE  MAX. CHANGE        NODE  MAX. CHANGE        NODE  MAX. CHANGE        NODE
 ------------------------------------------------------------------------------------------------------------------------------------
  -0.28049    ,       1360
     TRANSPORT SOLUTION COMPLETE FOR COMPONENT SPECIES NUMBER    1
     ------------------------------------------------------------

 TRANSPORT SOLUTION COMPLETE FOR ALL SPECIES, SORTING OUTPUT FOR CONCENTRATIONS AND MASS BALANCE
 ----------------------------------------------------------------------------------------------------
     TRANSPORT OUTPUT FOR COMPONENT SPECIES NUMBER    1
     ------------------------------------------------------------
 -------------------------------------------------------------------------------------
 
 SOLVING FOR HEAD 

 Outer-Iteration  Inner-Iteration  Backtracking  Number of        Incoming       Outgoing      Cutoff     Maximum Head Change      Maximum Head Change
     Number           Count           Flag       Backtracks       Residual       Residual      Residual            Value               Location
        1                             0             0          0.895066E-02     0.895066E-02   -1.00000    
        1               11                                                                                       0.264403E-04               1279           GWF-node number
        2                             0             0          0.504382E-06     0.504382E-06   -1.00000    
        2                1                                                                                       0.368759E-06               2094           GWF-node number
     2 CALLS TO SPARSE MATRIX SOLVER PACKAGE  IN FLOW TIME STEP     253 STRESS PERIOD       2

 TOTAL OF       2OUTER ITERATIONS
  MAXIMUM CHANGE FOR EACH ITERATION:
   MAX. CHANGE        NODE  MAX. CHANGE        NODE  MAX. CHANGE        NODE  MAX. CHANGE        NODE  MAX. CHANGE        NODE
 ------------------------------------------------------------------------------------------------------------------------------------
   0.26440E-04,       1279  0.36876E-06,       2094

 NO OUTPUT CONTROL FOR STRESS PERIOD        2   TIME STEP      253



          TIME SUMMARY AT END OF TIME STEP       253 IN STRESS PERIOD         2
                    SECONDS     MINUTES      HOURS       DAYS        YEARS
                    -----------------------------------------------------------
   TIME STEP LENGTH  86.400      1.4400     2.40000E-02 1.00000E-03 2.73785E-06
 STRESS PERIOD TIME  21859.      364.32      6.0720     0.25300     6.92676E-04
         TOTAL TIME 1.08259E+05  1804.3      30.072      1.2530     3.43053E-03
1
 ------------------------------------------------------------------------------------------------------------
 
 SOLVING FOR TRANSPORT 

          SEQUENTIAL TRANSPORT ITERATION LOOP NUMBER    1
          -----------------------------------------------

 ------------------------------------------------------------------------------------------------------------------------
     1 CALLS TO SPARSE MATRIX SOLVER PACKAGE IN TRANSPORT TIME STEP     253 STRESS PERIOD       2 SPECIES  1

 TOTAL OF       1OUTER ITERATIONS
  MAXIMUM CHANGE FOR EACH ITERATION:
   MAX. CHANGE        NODE  MAX. CHANGE        NODE  MAX. CHANGE        NODE  MAX. CHANGE        NODE  MAX. CHANGE        NODE
 ------------------------------------------------------------------------------------------------------------------------------------
  -0.30948    ,       1280
     TRANSPORT SOLUTION COMPLETE FOR COMPONENT SPECIES NUMBER    1
     ------------------------------------------------------------

 TRANSPORT SOLUTION COMPLETE FOR ALL SPECIES, SORTING OUTPUT FOR CONCENTRATIONS AND MASS BALANCE
 ----------------------------------------------------------------------------------------------------
     TRANSPORT OUTPUT FOR COMPONENT SPECIES NUMBER    1
     ------------------------------------------------------------
 -------------------------------------------------------------------------------------
 
 SOLVING FOR HEAD 

 Outer-Iteration  Inner-Iteration  Backtracking  Number of        Incoming       Outgoing      Cutoff     Maximum Head Change      Maximum Head Change
     Number           Count           Flag       Backtracks       Residual       Residual      Residual            Value               Location
        1                             0             0          0.789716E-02     0.789716E-02   -1.00000    
        1               10                                                                                       0.221073E-04               1280           GWF-node number
        2                             0             0          0.830183E-06     0.830183E-06   -1.00000    
        2                1                                                                                       0.534229E-06               3125           GWF-node number
     2 CALLS TO SPARSE MATRIX SOLVER PACKAGE  IN FLOW TIME STEP     254 STRESS PERIOD       2

 TOTAL OF       2OUTER ITERATIONS
  MAXIMUM CHANGE FOR EACH ITERATION:
   MAX. CHANGE        NODE  MAX. CHANGE        NODE  MAX. CHANGE        NODE  MAX. CHANGE        NODE  MAX. CHANGE        NODE
 ------------------------------------------------------------------------------------------------------------------------------------
   0.22107E-04,       1280  0.53423E-06,       3125

 NO OUTPUT CONTROL FOR STRESS PERIOD        2   TIME STEP      254



          TIME SUMMARY AT END OF TIME STEP       254 IN STRESS PERIOD         2
                    SECONDS     MINUTES      HOURS       DAYS        YEARS
                    -----------------------------------------------------------
   TIME STEP LENGTH  86.400      1.4400     2.40000E-02 1.00000E-03 2.73785E-06
 STRESS PERIOD TIME  21946.      365.76      6.0960     0.25400     6.95414E-04
         TOTAL TIME 1.08346E+05  1805.8      30.096      1.2540     3.43327E-03
1
 ------------------------------------------------------------------------------------------------------------
 
 SOLVING FOR TRANSPORT 

          SEQUENTIAL TRANSPORT ITERATION LOOP NUMBER    1
          -----------------------------------------------

 ------------------------------------------------------------------------------------------------------------------------
     1 CALLS TO SPARSE MATRIX SOLVER PACKAGE IN TRANSPORT TIME STEP     254 STRESS PERIOD       2 SPECIES  1

 TOTAL OF       1OUTER ITERATIONS
  MAXIMUM CHANGE FOR EACH ITERATION:
   MAX. CHANGE        NODE  MAX. CHANGE        NODE  MAX. CHANGE        NODE  MAX. CHANGE        NODE  MAX. CHANGE        NODE
 ------------------------------------------------------------------------------------------------------------------------------------
  -0.41475    ,       1280
     TRANSPORT SOLUTION COMPLETE FOR COMPONENT SPECIES NUMBER    1
     ------------------------------------------------------------

 TRANSPORT SOLUTION COMPLETE FOR ALL SPECIES, SORTING OUTPUT FOR CONCENTRATIONS AND MASS BALANCE
 ----------------------------------------------------------------------------------------------------
     TRANSPORT OUTPUT FOR COMPONENT SPECIES NUMBER    1
     ------------------------------------------------------------
 -------------------------------------------------------------------------------------
 
 SOLVING FOR HEAD 

 Outer-Iteration  Inner-Iteration  Backtracking  Number of        Incoming       Outgoing      Cutoff     Maximum Head Change      Maximum Head Change
     Number           Count           Flag       Backtracks       Residual       Residual      Residual            Value               Location
        1                             0             0          0.236071E-01     0.236071E-01   -1.00000    
        1                8                                                                                       0.349575E-04               1280           GWF-node number
        2                             0             0          0.288179E-04     0.288179E-04   -1.00000    
        2                5                                                                                       0.241159E-05               1231           GWF-node number
     2 CALLS TO SPARSE MATRIX SOLVER PACKAGE  IN FLOW TIME STEP     255 STRESS PERIOD       2

 TOTAL OF       2OUTER ITERATIONS
  MAXIMUM CHANGE FOR EACH ITERATION:
   MAX. CHANGE        NODE  MAX. CHANGE        NODE  MAX. CHANGE        NODE  MAX. CHANGE        NODE  MAX. CHANGE        NODE
 ------------------------------------------------------------------------------------------------------------------------------------
   0.34957E-04,       1280  0.24116E-05,       1231

 NO OUTPUT CONTROL FOR STRESS PERIOD        2   TIME STEP      255



          TIME SUMMARY AT END OF TIME STEP       255 IN STRESS PERIOD         2
                    SECONDS     MINUTES      HOURS       DAYS        YEARS
                    -----------------------------------------------------------
   TIME STEP LENGTH  86.400      1.4400     2.40000E-02 1.00000E-03 2.73785E-06
 STRESS PERIOD TIME  22032.      367.20      6.1200     0.25500     6.98152E-04
         TOTAL TIME 1.08432E+05  1807.2      30.120      1.2550     3.43600E-03
1
 ------------------------------------------------------------------------------------------------------------
 
 SOLVING FOR TRANSPORT 

          SEQUENTIAL TRANSPORT ITERATION LOOP NUMBER    1
          -----------------------------------------------

 ------------------------------------------------------------------------------------------------------------------------
     1 CALLS TO SPARSE MATRIX SOLVER PACKAGE IN TRANSPORT TIME STEP     255 STRESS PERIOD       2 SPECIES  1

 TOTAL OF       1OUTER ITERATIONS
  MAXIMUM CHANGE FOR EACH ITERATION:
   MAX. CHANGE        NODE  MAX. CHANGE        NODE  MAX. CHANGE        NODE  MAX. CHANGE        NODE  MAX. CHANGE        NODE
 ------------------------------------------------------------------------------------------------------------------------------------
  -0.58700    ,       1280
     TRANSPORT SOLUTION COMPLETE FOR COMPONENT SPECIES NUMBER    1
     ------------------------------------------------------------

 TRANSPORT SOLUTION COMPLETE FOR ALL SPECIES, SORTING OUTPUT FOR CONCENTRATIONS AND MASS BALANCE
 ----------------------------------------------------------------------------------------------------
     TRANSPORT OUTPUT FOR COMPONENT SPECIES NUMBER    1
     ------------------------------------------------------------
 -------------------------------------------------------------------------------------
 
 SOLVING FOR HEAD 

 Outer-Iteration  Inner-Iteration  Backtracking  Number of        Incoming       Outgoing      Cutoff     Maximum Head Change      Maximum Head Change
     Number           Count           Flag       Backtracks       Residual       Residual      Residual            Value               Location
        1                             0             0          0.656633E-01     0.656633E-01   -1.00000    
        1               13                                                                                       0.520622E-04               1280           GWF-node number
        2                             0             0          0.267348E-06     0.267348E-06   -1.00000    
        2                1                                                                                      -0.814158E-06               1460           GWF-node number
     2 CALLS TO SPARSE MATRIX SOLVER PACKAGE  IN FLOW TIME STEP     256 STRESS PERIOD       2

 TOTAL OF       2OUTER ITERATIONS
  MAXIMUM CHANGE FOR EACH ITERATION:
   MAX. CHANGE        NODE  MAX. CHANGE        NODE  MAX. CHANGE        NODE  MAX. CHANGE        NODE  MAX. CHANGE        NODE
 ------------------------------------------------------------------------------------------------------------------------------------
   0.52062E-04,       1280 -0.81416E-06,       1460

 NO OUTPUT CONTROL FOR STRESS PERIOD        2   TIME STEP      256



          TIME SUMMARY AT END OF TIME STEP       256 IN STRESS PERIOD         2
                    SECONDS     MINUTES      HOURS       DAYS        YEARS
                    -----------------------------------------------------------
   TIME STEP LENGTH  86.400      1.4400     2.40000E-02 1.00000E-03 2.73785E-06
 STRESS PERIOD TIME  22118.      368.64      6.1440     0.25600     7.00890E-04
         TOTAL TIME 1.08518E+05  1808.6      30.144      1.2560     3.43874E-03
1
 ------------------------------------------------------------------------------------------------------------
 
 SOLVING FOR TRANSPORT 

          SEQUENTIAL TRANSPORT ITERATION LOOP NUMBER    1
          -----------------------------------------------

 ------------------------------------------------------------------------------------------------------------------------
     1 CALLS TO SPARSE MATRIX SOLVER PACKAGE IN TRANSPORT TIME STEP     256 STRESS PERIOD       2 SPECIES  1

 TOTAL OF       1OUTER ITERATIONS
  MAXIMUM CHANGE FOR EACH ITERATION:
   MAX. CHANGE        NODE  MAX. CHANGE        NODE  MAX. CHANGE        NODE  MAX. CHANGE        NODE  MAX. CHANGE        NODE
 ------------------------------------------------------------------------------------------------------------------------------------
  -0.57540    ,       1200
     TRANSPORT SOLUTION COMPLETE FOR COMPONENT SPECIES NUMBER    1
     ------------------------------------------------------------

 TRANSPORT SOLUTION COMPLETE FOR ALL SPECIES, SORTING OUTPUT FOR CONCENTRATIONS AND MASS BALANCE
 ----------------------------------------------------------------------------------------------------
     TRANSPORT OUTPUT FOR COMPONENT SPECIES NUMBER    1
     ------------------------------------------------------------
 -------------------------------------------------------------------------------------
 
 SOLVING FOR HEAD 

 Outer-Iteration  Inner-Iteration  Backtracking  Number of        Incoming       Outgoing      Cutoff     Maximum Head Change      Maximum Head Change
     Number           Count           Flag       Backtracks       Residual       Residual      Residual            Value               Location
        1                             0             0          0.410998E-01     0.410998E-01   -1.00000    
        1               12                                                                                       0.445737E-04               1200           GWF-node number
        2                             0             0          0.146925E-06     0.146925E-06   -1.00000    
        2                1                                                                                       0.884871E-06               2650           GWF-node number
     2 CALLS TO SPARSE MATRIX SOLVER PACKAGE  IN FLOW TIME STEP     257 STRESS PERIOD       2

 TOTAL OF       2OUTER ITERATIONS
  MAXIMUM CHANGE FOR EACH ITERATION:
   MAX. CHANGE        NODE  MAX. CHANGE        NODE  MAX. CHANGE        NODE  MAX. CHANGE        NODE  MAX. CHANGE        NODE
 ------------------------------------------------------------------------------------------------------------------------------------
   0.44574E-04,       1200  0.88487E-06,       2650

 NO OUTPUT CONTROL FOR STRESS PERIOD        2   TIME STEP      257



          TIME SUMMARY AT END OF TIME STEP       257 IN STRESS PERIOD         2
                    SECONDS     MINUTES      HOURS       DAYS        YEARS
                    -----------------------------------------------------------
   TIME STEP LENGTH  86.400      1.4400     2.40000E-02 1.00000E-03 2.73785E-06
 STRESS PERIOD TIME  22205.      370.08      6.1680     0.25700     7.03628E-04
         TOTAL TIME 1.08605E+05  1810.1      30.168      1.2570     3.44148E-03
1
 ------------------------------------------------------------------------------------------------------------
 
 SOLVING FOR TRANSPORT 

          SEQUENTIAL TRANSPORT ITERATION LOOP NUMBER    1
          -----------------------------------------------

 ------------------------------------------------------------------------------------------------------------------------
     1 CALLS TO SPARSE MATRIX SOLVER PACKAGE IN TRANSPORT TIME STEP     257 STRESS PERIOD       2 SPECIES  1

 TOTAL OF       1OUTER ITERATIONS
  MAXIMUM CHANGE FOR EACH ITERATION:
   MAX. CHANGE        NODE  MAX. CHANGE        NODE  MAX. CHANGE        NODE  MAX. CHANGE        NODE  MAX. CHANGE        NODE
 ------------------------------------------------------------------------------------------------------------------------------------
  -0.51959    ,       1200
     TRANSPORT SOLUTION COMPLETE FOR COMPONENT SPECIES NUMBER    1
     ------------------------------------------------------------

 TRANSPORT SOLUTION COMPLETE FOR ALL SPECIES, SORTING OUTPUT FOR CONCENTRATIONS AND MASS BALANCE
 ----------------------------------------------------------------------------------------------------
     TRANSPORT OUTPUT FOR COMPONENT SPECIES NUMBER    1
     ------------------------------------------------------------
 -------------------------------------------------------------------------------------
 
 SOLVING FOR HEAD 

 Outer-Iteration  Inner-Iteration  Backtracking  Number of        Incoming       Outgoing      Cutoff     Maximum Head Change      Maximum Head Change
     Number           Count           Flag       Backtracks       Residual       Residual      Residual            Value               Location
        1                             0             0          0.606107E-01     0.606107E-01   -1.00000    
        1               12                                                                                       0.481731E-04               1200           GWF-node number
        2                             0             0          0.326220E-06     0.326220E-06   -1.00000    
        2                1                                                                                      -0.270502E-06               1777           GWF-node number
     2 CALLS TO SPARSE MATRIX SOLVER PACKAGE  IN FLOW TIME STEP     258 STRESS PERIOD       2

 TOTAL OF       2OUTER ITERATIONS
  MAXIMUM CHANGE FOR EACH ITERATION:
   MAX. CHANGE        NODE  MAX. CHANGE        NODE  MAX. CHANGE        NODE  MAX. CHANGE        NODE  MAX. CHANGE        NODE
 ------------------------------------------------------------------------------------------------------------------------------------
   0.48173E-04,       1200 -0.27050E-06,       1777

 NO OUTPUT CONTROL FOR STRESS PERIOD        2   TIME STEP      258



          TIME SUMMARY AT END OF TIME STEP       258 IN STRESS PERIOD         2
                    SECONDS     MINUTES      HOURS       DAYS        YEARS
                    -----------------------------------------------------------
   TIME STEP LENGTH  86.400      1.4400     2.40000E-02 1.00000E-03 2.73785E-06
 STRESS PERIOD TIME  22291.      371.52      6.1920     0.25800     7.06365E-04
         TOTAL TIME 1.08691E+05  1811.5      30.192      1.2580     3.44422E-03
1
 ------------------------------------------------------------------------------------------------------------
 
 SOLVING FOR TRANSPORT 

          SEQUENTIAL TRANSPORT ITERATION LOOP NUMBER    1
          -----------------------------------------------

 ------------------------------------------------------------------------------------------------------------------------
     1 CALLS TO SPARSE MATRIX SOLVER PACKAGE IN TRANSPORT TIME STEP     258 STRESS PERIOD       2 SPECIES  1

 TOTAL OF       1OUTER ITERATIONS
  MAXIMUM CHANGE FOR EACH ITERATION:
   MAX. CHANGE        NODE  MAX. CHANGE        NODE  MAX. CHANGE        NODE  MAX. CHANGE        NODE  MAX. CHANGE        NODE
 ------------------------------------------------------------------------------------------------------------------------------------
   0.36802    ,       1440
     TRANSPORT SOLUTION COMPLETE FOR COMPONENT SPECIES NUMBER    1
     ------------------------------------------------------------

 TRANSPORT SOLUTION COMPLETE FOR ALL SPECIES, SORTING OUTPUT FOR CONCENTRATIONS AND MASS BALANCE
 ----------------------------------------------------------------------------------------------------
     TRANSPORT OUTPUT FOR COMPONENT SPECIES NUMBER    1
     ------------------------------------------------------------
 -------------------------------------------------------------------------------------
 
 SOLVING FOR HEAD 

 Outer-Iteration  Inner-Iteration  Backtracking  Number of        Incoming       Outgoing      Cutoff     Maximum Head Change      Maximum Head Change
     Number           Count           Flag       Backtracks       Residual       Residual      Residual            Value               Location
        1                             0             0          0.114429E-01     0.114429E-01   -1.00000    
        1               11                                                                                      -0.261986E-04               1440           GWF-node number
        2                             0             0          0.183822E-06     0.183822E-06   -1.00000    
        2                1                                                                                       0.980053E-06               3122           GWF-node number
     2 CALLS TO SPARSE MATRIX SOLVER PACKAGE  IN FLOW TIME STEP     259 STRESS PERIOD       2

 TOTAL OF       2OUTER ITERATIONS
  MAXIMUM CHANGE FOR EACH ITERATION:
   MAX. CHANGE        NODE  MAX. CHANGE        NODE  MAX. CHANGE        NODE  MAX. CHANGE        NODE  MAX. CHANGE        NODE
 ------------------------------------------------------------------------------------------------------------------------------------
  -0.26199E-04,       1440  0.98005E-06,       3122

 NO OUTPUT CONTROL FOR STRESS PERIOD        2   TIME STEP      259



          TIME SUMMARY AT END OF TIME STEP       259 IN STRESS PERIOD         2
                    SECONDS     MINUTES      HOURS       DAYS        YEARS
                    -----------------------------------------------------------
   TIME STEP LENGTH  86.400      1.4400     2.40000E-02 1.00000E-03 2.73785E-06
 STRESS PERIOD TIME  22378.      372.96      6.2160     0.25900     7.09103E-04
         TOTAL TIME 1.08778E+05  1813.0      30.216      1.2590     3.44695E-03
1
 ------------------------------------------------------------------------------------------------------------
 
 SOLVING FOR TRANSPORT 

          SEQUENTIAL TRANSPORT ITERATION LOOP NUMBER    1
          -----------------------------------------------

 ------------------------------------------------------------------------------------------------------------------------
     1 CALLS TO SPARSE MATRIX SOLVER PACKAGE IN TRANSPORT TIME STEP     259 STRESS PERIOD       2 SPECIES  1

 TOTAL OF       1OUTER ITERATIONS
  MAXIMUM CHANGE FOR EACH ITERATION:
   MAX. CHANGE        NODE  MAX. CHANGE        NODE  MAX. CHANGE        NODE  MAX. CHANGE        NODE  MAX. CHANGE        NODE
 ------------------------------------------------------------------------------------------------------------------------------------
   0.40024    ,       1440
     TRANSPORT SOLUTION COMPLETE FOR COMPONENT SPECIES NUMBER    1
     ------------------------------------------------------------

 TRANSPORT SOLUTION COMPLETE FOR ALL SPECIES, SORTING OUTPUT FOR CONCENTRATIONS AND MASS BALANCE
 ----------------------------------------------------------------------------------------------------
     TRANSPORT OUTPUT FOR COMPONENT SPECIES NUMBER    1
     ------------------------------------------------------------
 -------------------------------------------------------------------------------------
 
 SOLVING FOR HEAD 

 Outer-Iteration  Inner-Iteration  Backtracking  Number of        Incoming       Outgoing      Cutoff     Maximum Head Change      Maximum Head Change
     Number           Count           Flag       Backtracks       Residual       Residual      Residual            Value               Location
        1                             0             0          0.919905E-02     0.919905E-02   -1.00000    
        1               12                                                                                      -0.268972E-04               1440           GWF-node number
        2                             0             0          0.498009E-07     0.498009E-07   -1.00000    
        2                1                                                                                      -0.144835E-06               3161           GWF-node number
     2 CALLS TO SPARSE MATRIX SOLVER PACKAGE  IN FLOW TIME STEP     260 STRESS PERIOD       2

 TOTAL OF       2OUTER ITERATIONS
  MAXIMUM CHANGE FOR EACH ITERATION:
   MAX. CHANGE        NODE  MAX. CHANGE        NODE  MAX. CHANGE        NODE  MAX. CHANGE        NODE  MAX. CHANGE        NODE
 ------------------------------------------------------------------------------------------------------------------------------------
  -0.26897E-04,       1440 -0.14483E-06,       3161

 NO OUTPUT CONTROL FOR STRESS PERIOD        2   TIME STEP      260



          TIME SUMMARY AT END OF TIME STEP       260 IN STRESS PERIOD         2
                    SECONDS     MINUTES      HOURS       DAYS        YEARS
                    -----------------------------------------------------------
   TIME STEP LENGTH  86.400      1.4400     2.40000E-02 1.00000E-03 2.73785E-06
 STRESS PERIOD TIME  22464.      374.40      6.2400     0.26000     7.11841E-04
         TOTAL TIME 1.08864E+05  1814.4      30.240      1.2600     3.44969E-03
1
 ------------------------------------------------------------------------------------------------------------
 
 SOLVING FOR TRANSPORT 

          SEQUENTIAL TRANSPORT ITERATION LOOP NUMBER    1
          -----------------------------------------------

 ------------------------------------------------------------------------------------------------------------------------
     1 CALLS TO SPARSE MATRIX SOLVER PACKAGE IN TRANSPORT TIME STEP     260 STRESS PERIOD       2 SPECIES  1

 TOTAL OF       1OUTER ITERATIONS
  MAXIMUM CHANGE FOR EACH ITERATION:
   MAX. CHANGE        NODE  MAX. CHANGE        NODE  MAX. CHANGE        NODE  MAX. CHANGE        NODE  MAX. CHANGE        NODE
 ------------------------------------------------------------------------------------------------------------------------------------
   0.44595    ,       1360
     TRANSPORT SOLUTION COMPLETE FOR COMPONENT SPECIES NUMBER    1
     ------------------------------------------------------------

 TRANSPORT SOLUTION COMPLETE FOR ALL SPECIES, SORTING OUTPUT FOR CONCENTRATIONS AND MASS BALANCE
 ----------------------------------------------------------------------------------------------------
     TRANSPORT OUTPUT FOR COMPONENT SPECIES NUMBER    1
     ------------------------------------------------------------
 -------------------------------------------------------------------------------------
 
 SOLVING FOR HEAD 

 Outer-Iteration  Inner-Iteration  Backtracking  Number of        Incoming       Outgoing      Cutoff     Maximum Head Change      Maximum Head Change
     Number           Count           Flag       Backtracks       Residual       Residual      Residual            Value               Location
        1                             0             0          0.910378E-02     0.910378E-02   -1.00000    
        1               12                                                                                      -0.247263E-04               1360           GWF-node number
        2                             0             0          0.839455E-07     0.839455E-07   -1.00000    
        2                1                                                                                       0.177210E-06                783           GWF-node number
     2 CALLS TO SPARSE MATRIX SOLVER PACKAGE  IN FLOW TIME STEP     261 STRESS PERIOD       2

 TOTAL OF       2OUTER ITERATIONS
  MAXIMUM CHANGE FOR EACH ITERATION:
   MAX. CHANGE        NODE  MAX. CHANGE        NODE  MAX. CHANGE        NODE  MAX. CHANGE        NODE  MAX. CHANGE        NODE
 ------------------------------------------------------------------------------------------------------------------------------------
  -0.24726E-04,       1360  0.17721E-06,        783

 NO OUTPUT CONTROL FOR STRESS PERIOD        2   TIME STEP      261



          TIME SUMMARY AT END OF TIME STEP       261 IN STRESS PERIOD         2
                    SECONDS     MINUTES      HOURS       DAYS        YEARS
                    -----------------------------------------------------------
   TIME STEP LENGTH  86.400      1.4400     2.40000E-02 1.00000E-03 2.73785E-06
 STRESS PERIOD TIME  22550.      375.84      6.2640     0.26100     7.14579E-04
         TOTAL TIME 1.08950E+05  1815.8      30.264      1.2610     3.45243E-03
1
 ------------------------------------------------------------------------------------------------------------
 
 SOLVING FOR TRANSPORT 

          SEQUENTIAL TRANSPORT ITERATION LOOP NUMBER    1
          -----------------------------------------------

 ------------------------------------------------------------------------------------------------------------------------
     1 CALLS TO SPARSE MATRIX SOLVER PACKAGE IN TRANSPORT TIME STEP     261 STRESS PERIOD       2 SPECIES  1

 TOTAL OF       1OUTER ITERATIONS
  MAXIMUM CHANGE FOR EACH ITERATION:
   MAX. CHANGE        NODE  MAX. CHANGE        NODE  MAX. CHANGE        NODE  MAX. CHANGE        NODE  MAX. CHANGE        NODE
 ------------------------------------------------------------------------------------------------------------------------------------
   0.42434    ,       1360
     TRANSPORT SOLUTION COMPLETE FOR COMPONENT SPECIES NUMBER    1
     ------------------------------------------------------------

 TRANSPORT SOLUTION COMPLETE FOR ALL SPECIES, SORTING OUTPUT FOR CONCENTRATIONS AND MASS BALANCE
 ----------------------------------------------------------------------------------------------------
     TRANSPORT OUTPUT FOR COMPONENT SPECIES NUMBER    1
     ------------------------------------------------------------
 -------------------------------------------------------------------------------------
 
 SOLVING FOR HEAD 

 Outer-Iteration  Inner-Iteration  Backtracking  Number of        Incoming       Outgoing      Cutoff     Maximum Head Change      Maximum Head Change
     Number           Count           Flag       Backtracks       Residual       Residual      Residual            Value               Location
        1                             0             0          0.908698E-02     0.908698E-02   -1.00000    
        1               11                                                                                      -0.248615E-04               1360           GWF-node number
        2                             0             0          0.195814E-06     0.195814E-06   -1.00000    
        2                1                                                                                       0.332540E-06               1492           GWF-node number
     2 CALLS TO SPARSE MATRIX SOLVER PACKAGE  IN FLOW TIME STEP     262 STRESS PERIOD       2

 TOTAL OF       2OUTER ITERATIONS
  MAXIMUM CHANGE FOR EACH ITERATION:
   MAX. CHANGE        NODE  MAX. CHANGE        NODE  MAX. CHANGE        NODE  MAX. CHANGE        NODE  MAX. CHANGE        NODE
 ------------------------------------------------------------------------------------------------------------------------------------
  -0.24862E-04,       1360  0.33254E-06,       1492

 NO OUTPUT CONTROL FOR STRESS PERIOD        2   TIME STEP      262



          TIME SUMMARY AT END OF TIME STEP       262 IN STRESS PERIOD         2
                    SECONDS     MINUTES      HOURS       DAYS        YEARS
                    -----------------------------------------------------------
   TIME STEP LENGTH  86.400      1.4400     2.40000E-02 1.00000E-03 2.73785E-06
 STRESS PERIOD TIME  22637.      377.28      6.2880     0.26200     7.17317E-04
         TOTAL TIME 1.09037E+05  1817.3      30.288      1.2620     3.45517E-03
1
 ------------------------------------------------------------------------------------------------------------
 
 SOLVING FOR TRANSPORT 

          SEQUENTIAL TRANSPORT ITERATION LOOP NUMBER    1
          -----------------------------------------------

 ------------------------------------------------------------------------------------------------------------------------
     1 CALLS TO SPARSE MATRIX SOLVER PACKAGE IN TRANSPORT TIME STEP     262 STRESS PERIOD       2 SPECIES  1

 TOTAL OF       1OUTER ITERATIONS
  MAXIMUM CHANGE FOR EACH ITERATION:
   MAX. CHANGE        NODE  MAX. CHANGE        NODE  MAX. CHANGE        NODE  MAX. CHANGE        NODE  MAX. CHANGE        NODE
 ------------------------------------------------------------------------------------------------------------------------------------
   0.39172    ,       1280
     TRANSPORT SOLUTION COMPLETE FOR COMPONENT SPECIES NUMBER    1
     ------------------------------------------------------------

 TRANSPORT SOLUTION COMPLETE FOR ALL SPECIES, SORTING OUTPUT FOR CONCENTRATIONS AND MASS BALANCE
 ----------------------------------------------------------------------------------------------------
     TRANSPORT OUTPUT FOR COMPONENT SPECIES NUMBER    1
     ------------------------------------------------------------
 -------------------------------------------------------------------------------------
 
 SOLVING FOR HEAD 

 Outer-Iteration  Inner-Iteration  Backtracking  Number of        Incoming       Outgoing      Cutoff     Maximum Head Change      Maximum Head Change
     Number           Count           Flag       Backtracks       Residual       Residual      Residual            Value               Location
        1                             0             0          0.705853E-02     0.705853E-02   -1.00000    
        1               13                                                                                       0.209728E-04                870           GWF-node number
        2                             0             0          0.219839E-07     0.219839E-07   -1.00000    
        2                1                                                                                       0.110327E-06               1389           GWF-node number
     2 CALLS TO SPARSE MATRIX SOLVER PACKAGE  IN FLOW TIME STEP     263 STRESS PERIOD       2

 TOTAL OF       2OUTER ITERATIONS
  MAXIMUM CHANGE FOR EACH ITERATION:
   MAX. CHANGE        NODE  MAX. CHANGE        NODE  MAX. CHANGE        NODE  MAX. CHANGE        NODE  MAX. CHANGE        NODE
 ------------------------------------------------------------------------------------------------------------------------------------
   0.20973E-04,        870  0.11033E-06,       1389

 NO OUTPUT CONTROL FOR STRESS PERIOD        2   TIME STEP      263



          TIME SUMMARY AT END OF TIME STEP       263 IN STRESS PERIOD         2
                    SECONDS     MINUTES      HOURS       DAYS        YEARS
                    -----------------------------------------------------------
   TIME STEP LENGTH  86.400      1.4400     2.40000E-02 1.00000E-03 2.73785E-06
 STRESS PERIOD TIME  22723.      378.72      6.3120     0.26300     7.20055E-04
         TOTAL TIME 1.09123E+05  1818.7      30.312      1.2630     3.45791E-03
1
 ------------------------------------------------------------------------------------------------------------
 
 SOLVING FOR TRANSPORT 

          SEQUENTIAL TRANSPORT ITERATION LOOP NUMBER    1
          -----------------------------------------------

 ------------------------------------------------------------------------------------------------------------------------
     1 CALLS TO SPARSE MATRIX SOLVER PACKAGE IN TRANSPORT TIME STEP     263 STRESS PERIOD       2 SPECIES  1

 TOTAL OF       1OUTER ITERATIONS
  MAXIMUM CHANGE FOR EACH ITERATION:
   MAX. CHANGE        NODE  MAX. CHANGE        NODE  MAX. CHANGE        NODE  MAX. CHANGE        NODE  MAX. CHANGE        NODE
 ------------------------------------------------------------------------------------------------------------------------------------
   0.38215    ,       1280
     TRANSPORT SOLUTION COMPLETE FOR COMPONENT SPECIES NUMBER    1
     ------------------------------------------------------------

 TRANSPORT SOLUTION COMPLETE FOR ALL SPECIES, SORTING OUTPUT FOR CONCENTRATIONS AND MASS BALANCE
 ----------------------------------------------------------------------------------------------------
     TRANSPORT OUTPUT FOR COMPONENT SPECIES NUMBER    1
     ------------------------------------------------------------
 -------------------------------------------------------------------------------------
 
 SOLVING FOR HEAD 

 Outer-Iteration  Inner-Iteration  Backtracking  Number of        Incoming       Outgoing      Cutoff     Maximum Head Change      Maximum Head Change
     Number           Count           Flag       Backtracks       Residual       Residual      Residual            Value               Location
        1                             0             0          0.774175E-02     0.774175E-02   -1.00000    
        1                9                                                                                      -0.210498E-04               1280           GWF-node number
        2                             0             0          0.169868E-05     0.169868E-05   -1.00000    
        2                2                                                                                      -0.133260E-05               1441           GWF-node number
     2 CALLS TO SPARSE MATRIX SOLVER PACKAGE  IN FLOW TIME STEP     264 STRESS PERIOD       2

 TOTAL OF       2OUTER ITERATIONS
  MAXIMUM CHANGE FOR EACH ITERATION:
   MAX. CHANGE        NODE  MAX. CHANGE        NODE  MAX. CHANGE        NODE  MAX. CHANGE        NODE  MAX. CHANGE        NODE
 ------------------------------------------------------------------------------------------------------------------------------------
  -0.21050E-04,       1280 -0.13326E-05,       1441

 NO OUTPUT CONTROL FOR STRESS PERIOD        2   TIME STEP      264



          TIME SUMMARY AT END OF TIME STEP       264 IN STRESS PERIOD         2
                    SECONDS     MINUTES      HOURS       DAYS        YEARS
                    -----------------------------------------------------------
   TIME STEP LENGTH  86.400      1.4400     2.40000E-02 1.00000E-03 2.73785E-06
 STRESS PERIOD TIME  22810.      380.16      6.3360     0.26400     7.22793E-04
         TOTAL TIME 1.09210E+05  1820.2      30.336      1.2640     3.46064E-03
1
 ------------------------------------------------------------------------------------------------------------
 
 SOLVING FOR TRANSPORT 

          SEQUENTIAL TRANSPORT ITERATION LOOP NUMBER    1
          -----------------------------------------------

 ------------------------------------------------------------------------------------------------------------------------
     1 CALLS TO SPARSE MATRIX SOLVER PACKAGE IN TRANSPORT TIME STEP     264 STRESS PERIOD       2 SPECIES  1

 TOTAL OF       1OUTER ITERATIONS
  MAXIMUM CHANGE FOR EACH ITERATION:
   MAX. CHANGE        NODE  MAX. CHANGE        NODE  MAX. CHANGE        NODE  MAX. CHANGE        NODE  MAX. CHANGE        NODE
 ------------------------------------------------------------------------------------------------------------------------------------
   0.32512    ,       1120
     TRANSPORT SOLUTION COMPLETE FOR COMPONENT SPECIES NUMBER    1
     ------------------------------------------------------------

 TRANSPORT SOLUTION COMPLETE FOR ALL SPECIES, SORTING OUTPUT FOR CONCENTRATIONS AND MASS BALANCE
 ----------------------------------------------------------------------------------------------------
     TRANSPORT OUTPUT FOR COMPONENT SPECIES NUMBER    1
     ------------------------------------------------------------
 -------------------------------------------------------------------------------------
 
 SOLVING FOR HEAD 

 Outer-Iteration  Inner-Iteration  Backtracking  Number of        Incoming       Outgoing      Cutoff     Maximum Head Change      Maximum Head Change
     Number           Count           Flag       Backtracks       Residual       Residual      Residual            Value               Location
        1                             0             0          0.709701E-02     0.709701E-02   -1.00000    
        1               10                                                                                      -0.192103E-04               1280           GWF-node number
        2                             0             0          0.121674E-05     0.121674E-05   -1.00000    
        2                2                                                                                       0.422611E-06               1259           GWF-node number
     2 CALLS TO SPARSE MATRIX SOLVER PACKAGE  IN FLOW TIME STEP     265 STRESS PERIOD       2

 TOTAL OF       2OUTER ITERATIONS
  MAXIMUM CHANGE FOR EACH ITERATION:
   MAX. CHANGE        NODE  MAX. CHANGE        NODE  MAX. CHANGE        NODE  MAX. CHANGE        NODE  MAX. CHANGE        NODE
 ------------------------------------------------------------------------------------------------------------------------------------
  -0.19210E-04,       1280  0.42261E-06,       1259

 NO OUTPUT CONTROL FOR STRESS PERIOD        2   TIME STEP      265



          TIME SUMMARY AT END OF TIME STEP       265 IN STRESS PERIOD         2
                    SECONDS     MINUTES      HOURS       DAYS        YEARS
                    -----------------------------------------------------------
   TIME STEP LENGTH  86.400      1.4400     2.40000E-02 1.00000E-03 2.73785E-06
 STRESS PERIOD TIME  22896.      381.60      6.3600     0.26500     7.25530E-04
         TOTAL TIME 1.09296E+05  1821.6      30.360      1.2650     3.46338E-03
1
 ------------------------------------------------------------------------------------------------------------
 
 SOLVING FOR TRANSPORT 

          SEQUENTIAL TRANSPORT ITERATION LOOP NUMBER    1
          -----------------------------------------------

 ------------------------------------------------------------------------------------------------------------------------
     1 CALLS TO SPARSE MATRIX SOLVER PACKAGE IN TRANSPORT TIME STEP     265 STRESS PERIOD       2 SPECIES  1

 TOTAL OF       1OUTER ITERATIONS
  MAXIMUM CHANGE FOR EACH ITERATION:
   MAX. CHANGE        NODE  MAX. CHANGE        NODE  MAX. CHANGE        NODE  MAX. CHANGE        NODE  MAX. CHANGE        NODE
 ------------------------------------------------------------------------------------------------------------------------------------
   0.27076    ,        960
     TRANSPORT SOLUTION COMPLETE FOR COMPONENT SPECIES NUMBER    1
     ------------------------------------------------------------

 TRANSPORT SOLUTION COMPLETE FOR ALL SPECIES, SORTING OUTPUT FOR CONCENTRATIONS AND MASS BALANCE
 ----------------------------------------------------------------------------------------------------
     TRANSPORT OUTPUT FOR COMPONENT SPECIES NUMBER    1
     ------------------------------------------------------------
 -------------------------------------------------------------------------------------
 
 SOLVING FOR HEAD 

 Outer-Iteration  Inner-Iteration  Backtracking  Number of        Incoming       Outgoing      Cutoff     Maximum Head Change      Maximum Head Change
     Number           Count           Flag       Backtracks       Residual       Residual      Residual            Value               Location
        1                             0             0          0.449335E-02     0.449335E-02   -1.00000    
        1               11                                                                                       0.154948E-04               1596           GWF-node number
        2                             0             0          0.908316E-07     0.908316E-07   -1.00000    
        2                1                                                                                       0.268442E-06               3127           GWF-node number
     2 CALLS TO SPARSE MATRIX SOLVER PACKAGE  IN FLOW TIME STEP     266 STRESS PERIOD       2

 TOTAL OF       2OUTER ITERATIONS
  MAXIMUM CHANGE FOR EACH ITERATION:
   MAX. CHANGE        NODE  MAX. CHANGE        NODE  MAX. CHANGE        NODE  MAX. CHANGE        NODE  MAX. CHANGE        NODE
 ------------------------------------------------------------------------------------------------------------------------------------
   0.15495E-04,       1596  0.26844E-06,       3127

 NO OUTPUT CONTROL FOR STRESS PERIOD        2   TIME STEP      266



          TIME SUMMARY AT END OF TIME STEP       266 IN STRESS PERIOD         2
                    SECONDS     MINUTES      HOURS       DAYS        YEARS
                    -----------------------------------------------------------
   TIME STEP LENGTH  86.400      1.4400     2.40000E-02 1.00000E-03 2.73785E-06
 STRESS PERIOD TIME  22982.      383.04      6.3840     0.26600     7.28268E-04
         TOTAL TIME 1.09382E+05  1823.0      30.384      1.2660     3.46612E-03
1
 ------------------------------------------------------------------------------------------------------------
 
 SOLVING FOR TRANSPORT 

          SEQUENTIAL TRANSPORT ITERATION LOOP NUMBER    1
          -----------------------------------------------

 ------------------------------------------------------------------------------------------------------------------------
     1 CALLS TO SPARSE MATRIX SOLVER PACKAGE IN TRANSPORT TIME STEP     266 STRESS PERIOD       2 SPECIES  1

 TOTAL OF       1OUTER ITERATIONS
  MAXIMUM CHANGE FOR EACH ITERATION:
   MAX. CHANGE        NODE  MAX. CHANGE        NODE  MAX. CHANGE        NODE  MAX. CHANGE        NODE  MAX. CHANGE        NODE
 ------------------------------------------------------------------------------------------------------------------------------------
   0.21319    ,        880
     TRANSPORT SOLUTION COMPLETE FOR COMPONENT SPECIES NUMBER    1
     ------------------------------------------------------------

 TRANSPORT SOLUTION COMPLETE FOR ALL SPECIES, SORTING OUTPUT FOR CONCENTRATIONS AND MASS BALANCE
 ----------------------------------------------------------------------------------------------------
     TRANSPORT OUTPUT FOR COMPONENT SPECIES NUMBER    1
     ------------------------------------------------------------
 -------------------------------------------------------------------------------------
 
 SOLVING FOR HEAD 

 Outer-Iteration  Inner-Iteration  Backtracking  Number of        Incoming       Outgoing      Cutoff     Maximum Head Change      Maximum Head Change
     Number           Count           Flag       Backtracks       Residual       Residual      Residual            Value               Location
        1                             0             0          0.295985E-02     0.295985E-02   -1.00000    
        1               10                                                                                       0.161606E-04               1517           GWF-node number
        2                             0             0          0.301761E-06     0.301761E-06   -1.00000    
        2                1                                                                                      -0.307960E-06               2321           GWF-node number
     2 CALLS TO SPARSE MATRIX SOLVER PACKAGE  IN FLOW TIME STEP     267 STRESS PERIOD       2

 TOTAL OF       2OUTER ITERATIONS
  MAXIMUM CHANGE FOR EACH ITERATION:
   MAX. CHANGE        NODE  MAX. CHANGE        NODE  MAX. CHANGE        NODE  MAX. CHANGE        NODE  MAX. CHANGE        NODE
 ------------------------------------------------------------------------------------------------------------------------------------
   0.16161E-04,       1517 -0.30796E-06,       2321

 NO OUTPUT CONTROL FOR STRESS PERIOD        2   TIME STEP      267



          TIME SUMMARY AT END OF TIME STEP       267 IN STRESS PERIOD         2
                    SECONDS     MINUTES      HOURS       DAYS        YEARS
                    -----------------------------------------------------------
   TIME STEP LENGTH  86.400      1.4400     2.40000E-02 1.00000E-03 2.73785E-06
 STRESS PERIOD TIME  23069.      384.48      6.4080     0.26700     7.31006E-04
         TOTAL TIME 1.09469E+05  1824.5      30.408      1.2670     3.46886E-03
1
 ------------------------------------------------------------------------------------------------------------
 
 SOLVING FOR TRANSPORT 

          SEQUENTIAL TRANSPORT ITERATION LOOP NUMBER    1
          -----------------------------------------------

 ------------------------------------------------------------------------------------------------------------------------
     1 CALLS TO SPARSE MATRIX SOLVER PACKAGE IN TRANSPORT TIME STEP     267 STRESS PERIOD       2 SPECIES  1

 TOTAL OF       1OUTER ITERATIONS
  MAXIMUM CHANGE FOR EACH ITERATION:
   MAX. CHANGE        NODE  MAX. CHANGE        NODE  MAX. CHANGE        NODE  MAX. CHANGE        NODE  MAX. CHANGE        NODE
 ------------------------------------------------------------------------------------------------------------------------------------
   0.15842    ,        880
     TRANSPORT SOLUTION COMPLETE FOR COMPONENT SPECIES NUMBER    1
     ------------------------------------------------------------

 TRANSPORT SOLUTION COMPLETE FOR ALL SPECIES, SORTING OUTPUT FOR CONCENTRATIONS AND MASS BALANCE
 ----------------------------------------------------------------------------------------------------
     TRANSPORT OUTPUT FOR COMPONENT SPECIES NUMBER    1
     ------------------------------------------------------------
 -------------------------------------------------------------------------------------
 
 SOLVING FOR HEAD 

 Outer-Iteration  Inner-Iteration  Backtracking  Number of        Incoming       Outgoing      Cutoff     Maximum Head Change      Maximum Head Change
     Number           Count           Flag       Backtracks       Residual       Residual      Residual            Value               Location
        1                             0             0          0.318711E-02     0.318711E-02   -1.00000    
        1                6                                                                                       0.178680E-04               1438           GWF-node number
        2                             0             0          0.314400E-04     0.314400E-04   -1.00000    
        2                4                                                                                      -0.367212E-05               1841           GWF-node number
     2 CALLS TO SPARSE MATRIX SOLVER PACKAGE  IN FLOW TIME STEP     268 STRESS PERIOD       2

 TOTAL OF       2OUTER ITERATIONS
  MAXIMUM CHANGE FOR EACH ITERATION:
   MAX. CHANGE        NODE  MAX. CHANGE        NODE  MAX. CHANGE        NODE  MAX. CHANGE        NODE  MAX. CHANGE        NODE
 ------------------------------------------------------------------------------------------------------------------------------------
   0.17868E-04,       1438 -0.36721E-05,       1841

 NO OUTPUT CONTROL FOR STRESS PERIOD        2   TIME STEP      268



          TIME SUMMARY AT END OF TIME STEP       268 IN STRESS PERIOD         2
                    SECONDS     MINUTES      HOURS       DAYS        YEARS
                    -----------------------------------------------------------
   TIME STEP LENGTH  86.400      1.4400     2.40000E-02 1.00000E-03 2.73785E-06
 STRESS PERIOD TIME  23155.      385.92      6.4320     0.26800     7.33744E-04
         TOTAL TIME 1.09555E+05  1825.9      30.432      1.2680     3.47159E-03
1
 ------------------------------------------------------------------------------------------------------------
 
 SOLVING FOR TRANSPORT 

          SEQUENTIAL TRANSPORT ITERATION LOOP NUMBER    1
          -----------------------------------------------

 ------------------------------------------------------------------------------------------------------------------------
     1 CALLS TO SPARSE MATRIX SOLVER PACKAGE IN TRANSPORT TIME STEP     268 STRESS PERIOD       2 SPECIES  1

 TOTAL OF       1OUTER ITERATIONS
  MAXIMUM CHANGE FOR EACH ITERATION:
   MAX. CHANGE        NODE  MAX. CHANGE        NODE  MAX. CHANGE        NODE  MAX. CHANGE        NODE  MAX. CHANGE        NODE
 ------------------------------------------------------------------------------------------------------------------------------------
  -0.15709    ,       1520
     TRANSPORT SOLUTION COMPLETE FOR COMPONENT SPECIES NUMBER    1
     ------------------------------------------------------------

 TRANSPORT SOLUTION COMPLETE FOR ALL SPECIES, SORTING OUTPUT FOR CONCENTRATIONS AND MASS BALANCE
 ----------------------------------------------------------------------------------------------------
     TRANSPORT OUTPUT FOR COMPONENT SPECIES NUMBER    1
     ------------------------------------------------------------
 -------------------------------------------------------------------------------------
 
 SOLVING FOR HEAD 

 Outer-Iteration  Inner-Iteration  Backtracking  Number of        Incoming       Outgoing      Cutoff     Maximum Head Change      Maximum Head Change
     Number           Count           Flag       Backtracks       Residual       Residual      Residual            Value               Location
        1                             0             0          0.309393E-02     0.309393E-02   -1.00000    
        1                9                                                                                       0.182238E-04               1438           GWF-node number
        2                             0             0          0.178970E-05     0.178970E-05   -1.00000    
        2                2                                                                                      -0.159399E-05               1681           GWF-node number
     2 CALLS TO SPARSE MATRIX SOLVER PACKAGE  IN FLOW TIME STEP     269 STRESS PERIOD       2

 TOTAL OF       2OUTER ITERATIONS
  MAXIMUM CHANGE FOR EACH ITERATION:
   MAX. CHANGE        NODE  MAX. CHANGE        NODE  MAX. CHANGE        NODE  MAX. CHANGE        NODE  MAX. CHANGE        NODE
 ------------------------------------------------------------------------------------------------------------------------------------
   0.18224E-04,       1438 -0.15940E-05,       1681

 NO OUTPUT CONTROL FOR STRESS PERIOD        2   TIME STEP      269



          TIME SUMMARY AT END OF TIME STEP       269 IN STRESS PERIOD         2
                    SECONDS     MINUTES      HOURS       DAYS        YEARS
                    -----------------------------------------------------------
   TIME STEP LENGTH  86.400      1.4400     2.40000E-02 1.00000E-03 2.73785E-06
 STRESS PERIOD TIME  23242.      387.36      6.4560     0.26900     7.36482E-04
         TOTAL TIME 1.09642E+05  1827.4      30.456      1.2690     3.47433E-03
1
 ------------------------------------------------------------------------------------------------------------
 
 SOLVING FOR TRANSPORT 

          SEQUENTIAL TRANSPORT ITERATION LOOP NUMBER    1
          -----------------------------------------------

 ------------------------------------------------------------------------------------------------------------------------
     1 CALLS TO SPARSE MATRIX SOLVER PACKAGE IN TRANSPORT TIME STEP     269 STRESS PERIOD       2 SPECIES  1

 TOTAL OF       1OUTER ITERATIONS
  MAXIMUM CHANGE FOR EACH ITERATION:
   MAX. CHANGE        NODE  MAX. CHANGE        NODE  MAX. CHANGE        NODE  MAX. CHANGE        NODE  MAX. CHANGE        NODE
 ------------------------------------------------------------------------------------------------------------------------------------
  -0.19819    ,       1520
     TRANSPORT SOLUTION COMPLETE FOR COMPONENT SPECIES NUMBER    1
     ------------------------------------------------------------

 TRANSPORT SOLUTION COMPLETE FOR ALL SPECIES, SORTING OUTPUT FOR CONCENTRATIONS AND MASS BALANCE
 ----------------------------------------------------------------------------------------------------
     TRANSPORT OUTPUT FOR COMPONENT SPECIES NUMBER    1
     ------------------------------------------------------------
 -------------------------------------------------------------------------------------
 
 SOLVING FOR HEAD 

 Outer-Iteration  Inner-Iteration  Backtracking  Number of        Incoming       Outgoing      Cutoff     Maximum Head Change      Maximum Head Change
     Number           Count           Flag       Backtracks       Residual       Residual      Residual            Value               Location
        1                             0             0          0.415639E-02     0.415639E-02   -1.00000    
        1                9                                                                                       0.222239E-04               1438           GWF-node number
        2                             0             0          0.161440E-05     0.161440E-05   -1.00000    
        2                1                                                                                      -0.428907E-06               1784           GWF-node number
     2 CALLS TO SPARSE MATRIX SOLVER PACKAGE  IN FLOW TIME STEP     270 STRESS PERIOD       2

 TOTAL OF       2OUTER ITERATIONS
  MAXIMUM CHANGE FOR EACH ITERATION:
   MAX. CHANGE        NODE  MAX. CHANGE        NODE  MAX. CHANGE        NODE  MAX. CHANGE        NODE  MAX. CHANGE        NODE
 ------------------------------------------------------------------------------------------------------------------------------------
   0.22224E-04,       1438 -0.42891E-06,       1784

 NO OUTPUT CONTROL FOR STRESS PERIOD        2   TIME STEP      270



          TIME SUMMARY AT END OF TIME STEP       270 IN STRESS PERIOD         2
                    SECONDS     MINUTES      HOURS       DAYS        YEARS
                    -----------------------------------------------------------
   TIME STEP LENGTH  86.400      1.4400     2.40000E-02 1.00000E-03 2.73785E-06
 STRESS PERIOD TIME  23328.      388.80      6.4800     0.27000     7.39220E-04
         TOTAL TIME 1.09728E+05  1828.8      30.480      1.2700     3.47707E-03
1
 ------------------------------------------------------------------------------------------------------------
 
 SOLVING FOR TRANSPORT 

          SEQUENTIAL TRANSPORT ITERATION LOOP NUMBER    1
          -----------------------------------------------

 ------------------------------------------------------------------------------------------------------------------------
     1 CALLS TO SPARSE MATRIX SOLVER PACKAGE IN TRANSPORT TIME STEP     270 STRESS PERIOD       2 SPECIES  1

 TOTAL OF       1OUTER ITERATIONS
  MAXIMUM CHANGE FOR EACH ITERATION:
   MAX. CHANGE        NODE  MAX. CHANGE        NODE  MAX. CHANGE        NODE  MAX. CHANGE        NODE  MAX. CHANGE        NODE
 ------------------------------------------------------------------------------------------------------------------------------------
  -0.24462    ,       1440
     TRANSPORT SOLUTION COMPLETE FOR COMPONENT SPECIES NUMBER    1
     ------------------------------------------------------------

 TRANSPORT SOLUTION COMPLETE FOR ALL SPECIES, SORTING OUTPUT FOR CONCENTRATIONS AND MASS BALANCE
 ----------------------------------------------------------------------------------------------------
     TRANSPORT OUTPUT FOR COMPONENT SPECIES NUMBER    1
     ------------------------------------------------------------
 -------------------------------------------------------------------------------------
 
 SOLVING FOR HEAD 

 Outer-Iteration  Inner-Iteration  Backtracking  Number of        Incoming       Outgoing      Cutoff     Maximum Head Change      Maximum Head Change
     Number           Count           Flag       Backtracks       Residual       Residual      Residual            Value               Location
        1                             0             0          0.661168E-02     0.661168E-02   -1.00000    
        1               10                                                                                       0.190753E-04               1438           GWF-node number
        2                             0             0          0.474834E-05     0.474834E-05   -1.00000    
        2                2                                                                                      -0.171222E-05               1042           GWF-node number
     2 CALLS TO SPARSE MATRIX SOLVER PACKAGE  IN FLOW TIME STEP     271 STRESS PERIOD       2

 TOTAL OF       2OUTER ITERATIONS
  MAXIMUM CHANGE FOR EACH ITERATION:
   MAX. CHANGE        NODE  MAX. CHANGE        NODE  MAX. CHANGE        NODE  MAX. CHANGE        NODE  MAX. CHANGE        NODE
 ------------------------------------------------------------------------------------------------------------------------------------
   0.19075E-04,       1438 -0.17122E-05,       1042

 NO OUTPUT CONTROL FOR STRESS PERIOD        2   TIME STEP      271



          TIME SUMMARY AT END OF TIME STEP       271 IN STRESS PERIOD         2
                    SECONDS     MINUTES      HOURS       DAYS        YEARS
                    -----------------------------------------------------------
   TIME STEP LENGTH  86.400      1.4400     2.40000E-02 1.00000E-03 2.73785E-06
 STRESS PERIOD TIME  23414.      390.24      6.5040     0.27100     7.41958E-04
         TOTAL TIME 1.09814E+05  1830.2      30.504      1.2710     3.47981E-03
1
 ------------------------------------------------------------------------------------------------------------
 
 SOLVING FOR TRANSPORT 

          SEQUENTIAL TRANSPORT ITERATION LOOP NUMBER    1
          -----------------------------------------------

 ------------------------------------------------------------------------------------------------------------------------
     1 CALLS TO SPARSE MATRIX SOLVER PACKAGE IN TRANSPORT TIME STEP     271 STRESS PERIOD       2 SPECIES  1

 TOTAL OF       1OUTER ITERATIONS
  MAXIMUM CHANGE FOR EACH ITERATION:
   MAX. CHANGE        NODE  MAX. CHANGE        NODE  MAX. CHANGE        NODE  MAX. CHANGE        NODE  MAX. CHANGE        NODE
 ------------------------------------------------------------------------------------------------------------------------------------
  -0.28632    ,       1440
     TRANSPORT SOLUTION COMPLETE FOR COMPONENT SPECIES NUMBER    1
     ------------------------------------------------------------

 TRANSPORT SOLUTION COMPLETE FOR ALL SPECIES, SORTING OUTPUT FOR CONCENTRATIONS AND MASS BALANCE
 ----------------------------------------------------------------------------------------------------
     TRANSPORT OUTPUT FOR COMPONENT SPECIES NUMBER    1
     ------------------------------------------------------------
 -------------------------------------------------------------------------------------
 
 SOLVING FOR HEAD 

 Outer-Iteration  Inner-Iteration  Backtracking  Number of        Incoming       Outgoing      Cutoff     Maximum Head Change      Maximum Head Change
     Number           Count           Flag       Backtracks       Residual       Residual      Residual            Value               Location
        1                             0             0          0.692085E-02     0.692085E-02   -1.00000    
        1                8                                                                                       0.242930E-04               1439           GWF-node number
        2                             0             0          0.105186E-04     0.105186E-04   -1.00000    
        2                4                                                                                      -0.119574E-05               1557           GWF-node number
     2 CALLS TO SPARSE MATRIX SOLVER PACKAGE  IN FLOW TIME STEP     272 STRESS PERIOD       2

 TOTAL OF       2OUTER ITERATIONS
  MAXIMUM CHANGE FOR EACH ITERATION:
   MAX. CHANGE        NODE  MAX. CHANGE        NODE  MAX. CHANGE        NODE  MAX. CHANGE        NODE  MAX. CHANGE        NODE
 ------------------------------------------------------------------------------------------------------------------------------------
   0.24293E-04,       1439 -0.11957E-05,       1557

 NO OUTPUT CONTROL FOR STRESS PERIOD        2   TIME STEP      272



          TIME SUMMARY AT END OF TIME STEP       272 IN STRESS PERIOD         2
                    SECONDS     MINUTES      HOURS       DAYS        YEARS
                    -----------------------------------------------------------
   TIME STEP LENGTH  86.400      1.4400     2.40000E-02 1.00000E-03 2.73785E-06
 STRESS PERIOD TIME  23501.      391.68      6.5280     0.27200     7.44695E-04
         TOTAL TIME 1.09901E+05  1831.7      30.528      1.2720     3.48255E-03
1
 ------------------------------------------------------------------------------------------------------------
 
 SOLVING FOR TRANSPORT 

          SEQUENTIAL TRANSPORT ITERATION LOOP NUMBER    1
          -----------------------------------------------

 ------------------------------------------------------------------------------------------------------------------------
     1 CALLS TO SPARSE MATRIX SOLVER PACKAGE IN TRANSPORT TIME STEP     272 STRESS PERIOD       2 SPECIES  1

 TOTAL OF       1OUTER ITERATIONS
  MAXIMUM CHANGE FOR EACH ITERATION:
   MAX. CHANGE        NODE  MAX. CHANGE        NODE  MAX. CHANGE        NODE  MAX. CHANGE        NODE  MAX. CHANGE        NODE
 ------------------------------------------------------------------------------------------------------------------------------------
  -0.28235    ,       1440
     TRANSPORT SOLUTION COMPLETE FOR COMPONENT SPECIES NUMBER    1
     ------------------------------------------------------------

 TRANSPORT SOLUTION COMPLETE FOR ALL SPECIES, SORTING OUTPUT FOR CONCENTRATIONS AND MASS BALANCE
 ----------------------------------------------------------------------------------------------------
     TRANSPORT OUTPUT FOR COMPONENT SPECIES NUMBER    1
     ------------------------------------------------------------
 -------------------------------------------------------------------------------------
 
 SOLVING FOR HEAD 

 Outer-Iteration  Inner-Iteration  Backtracking  Number of        Incoming       Outgoing      Cutoff     Maximum Head Change      Maximum Head Change
     Number           Count           Flag       Backtracks       Residual       Residual      Residual            Value               Location
        1                             0             0          0.693966E-02     0.693966E-02   -1.00000    
        1               12                                                                                       0.261684E-04               1359           GWF-node number
        2                             0             0          0.122350E-06     0.122350E-06   -1.00000    
        2                1                                                                                      -0.229322E-06               1705           GWF-node number
     2 CALLS TO SPARSE MATRIX SOLVER PACKAGE  IN FLOW TIME STEP     273 STRESS PERIOD       2

 TOTAL OF       2OUTER ITERATIONS
  MAXIMUM CHANGE FOR EACH ITERATION:
   MAX. CHANGE        NODE  MAX. CHANGE        NODE  MAX. CHANGE        NODE  MAX. CHANGE        NODE  MAX. CHANGE        NODE
 ------------------------------------------------------------------------------------------------------------------------------------
   0.26168E-04,       1359 -0.22932E-06,       1705

 NO OUTPUT CONTROL FOR STRESS PERIOD        2   TIME STEP      273



          TIME SUMMARY AT END OF TIME STEP       273 IN STRESS PERIOD         2
                    SECONDS     MINUTES      HOURS       DAYS        YEARS
                    -----------------------------------------------------------
   TIME STEP LENGTH  86.400      1.4400     2.40000E-02 1.00000E-03 2.73785E-06
 STRESS PERIOD TIME  23587.      393.12      6.5520     0.27300     7.47433E-04
         TOTAL TIME 1.09987E+05  1833.1      30.552      1.2730     3.48528E-03
1
 ------------------------------------------------------------------------------------------------------------
 
 SOLVING FOR TRANSPORT 

          SEQUENTIAL TRANSPORT ITERATION LOOP NUMBER    1
          -----------------------------------------------

 ------------------------------------------------------------------------------------------------------------------------
     1 CALLS TO SPARSE MATRIX SOLVER PACKAGE IN TRANSPORT TIME STEP     273 STRESS PERIOD       2 SPECIES  1

 TOTAL OF       1OUTER ITERATIONS
  MAXIMUM CHANGE FOR EACH ITERATION:
   MAX. CHANGE        NODE  MAX. CHANGE        NODE  MAX. CHANGE        NODE  MAX. CHANGE        NODE  MAX. CHANGE        NODE
 ------------------------------------------------------------------------------------------------------------------------------------
  -0.33862    ,       1360
     TRANSPORT SOLUTION COMPLETE FOR COMPONENT SPECIES NUMBER    1
     ------------------------------------------------------------

 TRANSPORT SOLUTION COMPLETE FOR ALL SPECIES, SORTING OUTPUT FOR CONCENTRATIONS AND MASS BALANCE
 ----------------------------------------------------------------------------------------------------
     TRANSPORT OUTPUT FOR COMPONENT SPECIES NUMBER    1
     ------------------------------------------------------------
 -------------------------------------------------------------------------------------
 
 SOLVING FOR HEAD 

 Outer-Iteration  Inner-Iteration  Backtracking  Number of        Incoming       Outgoing      Cutoff     Maximum Head Change      Maximum Head Change
     Number           Count           Flag       Backtracks       Residual       Residual      Residual            Value               Location
        1                             0             0          0.103594E-01     0.103594E-01   -1.00000    
        1                8                                                                                       0.283369E-04               1359           GWF-node number
        2                             0             0          0.600946E-05     0.600946E-05   -1.00000    
        2                2                                                                                       0.113313E-05               2449           GWF-node number
     2 CALLS TO SPARSE MATRIX SOLVER PACKAGE  IN FLOW TIME STEP     274 STRESS PERIOD       2

 TOTAL OF       2OUTER ITERATIONS
  MAXIMUM CHANGE FOR EACH ITERATION:
   MAX. CHANGE        NODE  MAX. CHANGE        NODE  MAX. CHANGE        NODE  MAX. CHANGE        NODE  MAX. CHANGE        NODE
 ------------------------------------------------------------------------------------------------------------------------------------
   0.28337E-04,       1359  0.11331E-05,       2449

 NO OUTPUT CONTROL FOR STRESS PERIOD        2   TIME STEP      274



          TIME SUMMARY AT END OF TIME STEP       274 IN STRESS PERIOD         2
                    SECONDS     MINUTES      HOURS       DAYS        YEARS
                    -----------------------------------------------------------
   TIME STEP LENGTH  86.400      1.4400     2.40000E-02 1.00000E-03 2.73785E-06
 STRESS PERIOD TIME  23674.      394.56      6.5760     0.27400     7.50171E-04
         TOTAL TIME 1.10074E+05  1834.6      30.576      1.2740     3.48802E-03
1
 ------------------------------------------------------------------------------------------------------------
 
 SOLVING FOR TRANSPORT 

          SEQUENTIAL TRANSPORT ITERATION LOOP NUMBER    1
          -----------------------------------------------

 ------------------------------------------------------------------------------------------------------------------------
     1 CALLS TO SPARSE MATRIX SOLVER PACKAGE IN TRANSPORT TIME STEP     274 STRESS PERIOD       2 SPECIES  1

 TOTAL OF       1OUTER ITERATIONS
  MAXIMUM CHANGE FOR EACH ITERATION:
   MAX. CHANGE        NODE  MAX. CHANGE        NODE  MAX. CHANGE        NODE  MAX. CHANGE        NODE  MAX. CHANGE        NODE
 ------------------------------------------------------------------------------------------------------------------------------------
  -0.43016    ,       1360
     TRANSPORT SOLUTION COMPLETE FOR COMPONENT SPECIES NUMBER    1
     ------------------------------------------------------------

 TRANSPORT SOLUTION COMPLETE FOR ALL SPECIES, SORTING OUTPUT FOR CONCENTRATIONS AND MASS BALANCE
 ----------------------------------------------------------------------------------------------------
     TRANSPORT OUTPUT FOR COMPONENT SPECIES NUMBER    1
     ------------------------------------------------------------
 -------------------------------------------------------------------------------------
 
 SOLVING FOR HEAD 

 Outer-Iteration  Inner-Iteration  Backtracking  Number of        Incoming       Outgoing      Cutoff     Maximum Head Change      Maximum Head Change
     Number           Count           Flag       Backtracks       Residual       Residual      Residual            Value               Location
        1                             0             0          0.237073E-01     0.237073E-01   -1.00000    
        1               11                                                                                       0.383530E-04               1360           GWF-node number
        2                             0             0          0.510232E-06     0.510232E-06   -1.00000    
        2                1                                                                                      -0.452331E-06                909           GWF-node number
     2 CALLS TO SPARSE MATRIX SOLVER PACKAGE  IN FLOW TIME STEP     275 STRESS PERIOD       2

 TOTAL OF       2OUTER ITERATIONS
  MAXIMUM CHANGE FOR EACH ITERATION:
   MAX. CHANGE        NODE  MAX. CHANGE        NODE  MAX. CHANGE        NODE  MAX. CHANGE        NODE  MAX. CHANGE        NODE
 ------------------------------------------------------------------------------------------------------------------------------------
   0.38353E-04,       1360 -0.45233E-06,        909

 NO OUTPUT CONTROL FOR STRESS PERIOD        2   TIME STEP      275



          TIME SUMMARY AT END OF TIME STEP       275 IN STRESS PERIOD         2
                    SECONDS     MINUTES      HOURS       DAYS        YEARS
                    -----------------------------------------------------------
   TIME STEP LENGTH  86.400      1.4400     2.40000E-02 1.00000E-03 2.73785E-06
 STRESS PERIOD TIME  23760.      396.00      6.6000     0.27500     7.52909E-04
         TOTAL TIME 1.10160E+05  1836.0      30.600      1.2750     3.49076E-03
1
 ------------------------------------------------------------------------------------------------------------
 
 SOLVING FOR TRANSPORT 

          SEQUENTIAL TRANSPORT ITERATION LOOP NUMBER    1
          -----------------------------------------------

 ------------------------------------------------------------------------------------------------------------------------
     1 CALLS TO SPARSE MATRIX SOLVER PACKAGE IN TRANSPORT TIME STEP     275 STRESS PERIOD       2 SPECIES  1

 TOTAL OF       1OUTER ITERATIONS
  MAXIMUM CHANGE FOR EACH ITERATION:
   MAX. CHANGE        NODE  MAX. CHANGE        NODE  MAX. CHANGE        NODE  MAX. CHANGE        NODE  MAX. CHANGE        NODE
 ------------------------------------------------------------------------------------------------------------------------------------
  -0.28603    ,       1360
     TRANSPORT SOLUTION COMPLETE FOR COMPONENT SPECIES NUMBER    1
     ------------------------------------------------------------

 TRANSPORT SOLUTION COMPLETE FOR ALL SPECIES, SORTING OUTPUT FOR CONCENTRATIONS AND MASS BALANCE
 ----------------------------------------------------------------------------------------------------
     TRANSPORT OUTPUT FOR COMPONENT SPECIES NUMBER    1
     ------------------------------------------------------------
 -------------------------------------------------------------------------------------
 
 SOLVING FOR HEAD 

 Outer-Iteration  Inner-Iteration  Backtracking  Number of        Incoming       Outgoing      Cutoff     Maximum Head Change      Maximum Head Change
     Number           Count           Flag       Backtracks       Residual       Residual      Residual            Value               Location
        1                             0             0          0.881609E-02     0.881609E-02   -1.00000    
        1                9                                                                                       0.245055E-04               1279           GWF-node number
        2                             0             0          0.174703E-05     0.174703E-05   -1.00000    
        2                2                                                                                      -0.597999E-06               1472           GWF-node number
     2 CALLS TO SPARSE MATRIX SOLVER PACKAGE  IN FLOW TIME STEP     276 STRESS PERIOD       2

 TOTAL OF       2OUTER ITERATIONS
  MAXIMUM CHANGE FOR EACH ITERATION:
   MAX. CHANGE        NODE  MAX. CHANGE        NODE  MAX. CHANGE        NODE  MAX. CHANGE        NODE  MAX. CHANGE        NODE
 ------------------------------------------------------------------------------------------------------------------------------------
   0.24505E-04,       1279 -0.59800E-06,       1472

 NO OUTPUT CONTROL FOR STRESS PERIOD        2   TIME STEP      276



          TIME SUMMARY AT END OF TIME STEP       276 IN STRESS PERIOD         2
                    SECONDS     MINUTES      HOURS       DAYS        YEARS
                    -----------------------------------------------------------
   TIME STEP LENGTH  86.400      1.4400     2.40000E-02 1.00000E-03 2.73785E-06
 STRESS PERIOD TIME  23846.      397.44      6.6240     0.27600     7.55647E-04
         TOTAL TIME 1.10246E+05  1837.4      30.624      1.2760     3.49350E-03
1
 ------------------------------------------------------------------------------------------------------------
 
 SOLVING FOR TRANSPORT 

          SEQUENTIAL TRANSPORT ITERATION LOOP NUMBER    1
          -----------------------------------------------

 ------------------------------------------------------------------------------------------------------------------------
     1 CALLS TO SPARSE MATRIX SOLVER PACKAGE IN TRANSPORT TIME STEP     276 STRESS PERIOD       2 SPECIES  1

 TOTAL OF       1OUTER ITERATIONS
  MAXIMUM CHANGE FOR EACH ITERATION:
   MAX. CHANGE        NODE  MAX. CHANGE        NODE  MAX. CHANGE        NODE  MAX. CHANGE        NODE  MAX. CHANGE        NODE
 ------------------------------------------------------------------------------------------------------------------------------------
  -0.32733    ,       1280
     TRANSPORT SOLUTION COMPLETE FOR COMPONENT SPECIES NUMBER    1
     ------------------------------------------------------------

 TRANSPORT SOLUTION COMPLETE FOR ALL SPECIES, SORTING OUTPUT FOR CONCENTRATIONS AND MASS BALANCE
 ----------------------------------------------------------------------------------------------------
     TRANSPORT OUTPUT FOR COMPONENT SPECIES NUMBER    1
     ------------------------------------------------------------
 -------------------------------------------------------------------------------------
 
 SOLVING FOR HEAD 

 Outer-Iteration  Inner-Iteration  Backtracking  Number of        Incoming       Outgoing      Cutoff     Maximum Head Change      Maximum Head Change
     Number           Count           Flag       Backtracks       Residual       Residual      Residual            Value               Location
        1                             0             0          0.964200E-02     0.964200E-02   -1.00000    
        1               11                                                                                       0.244019E-04               1280           GWF-node number
        2                             0             0          0.354773E-06     0.354773E-06   -1.00000    
        2                1                                                                                      -0.392009E-06               3127           GWF-node number
     2 CALLS TO SPARSE MATRIX SOLVER PACKAGE  IN FLOW TIME STEP     277 STRESS PERIOD       2

 TOTAL OF       2OUTER ITERATIONS
  MAXIMUM CHANGE FOR EACH ITERATION:
   MAX. CHANGE        NODE  MAX. CHANGE        NODE  MAX. CHANGE        NODE  MAX. CHANGE        NODE  MAX. CHANGE        NODE
 ------------------------------------------------------------------------------------------------------------------------------------
   0.24402E-04,       1280 -0.39201E-06,       3127

 NO OUTPUT CONTROL FOR STRESS PERIOD        2   TIME STEP      277



          TIME SUMMARY AT END OF TIME STEP       277 IN STRESS PERIOD         2
                    SECONDS     MINUTES      HOURS       DAYS        YEARS
                    -----------------------------------------------------------
   TIME STEP LENGTH  86.400      1.4400     2.40000E-02 1.00000E-03 2.73785E-06
 STRESS PERIOD TIME  23933.      398.88      6.6480     0.27700     7.58385E-04
         TOTAL TIME 1.10333E+05  1838.9      30.648      1.2770     3.49624E-03
1
 ------------------------------------------------------------------------------------------------------------
 
 SOLVING FOR TRANSPORT 

          SEQUENTIAL TRANSPORT ITERATION LOOP NUMBER    1
          -----------------------------------------------

 ------------------------------------------------------------------------------------------------------------------------
     1 CALLS TO SPARSE MATRIX SOLVER PACKAGE IN TRANSPORT TIME STEP     277 STRESS PERIOD       2 SPECIES  1

 TOTAL OF       1OUTER ITERATIONS
  MAXIMUM CHANGE FOR EACH ITERATION:
   MAX. CHANGE        NODE  MAX. CHANGE        NODE  MAX. CHANGE        NODE  MAX. CHANGE        NODE  MAX. CHANGE        NODE
 ------------------------------------------------------------------------------------------------------------------------------------
  -0.44838    ,       1280
     TRANSPORT SOLUTION COMPLETE FOR COMPONENT SPECIES NUMBER    1
     ------------------------------------------------------------

 TRANSPORT SOLUTION COMPLETE FOR ALL SPECIES, SORTING OUTPUT FOR CONCENTRATIONS AND MASS BALANCE
 ----------------------------------------------------------------------------------------------------
     TRANSPORT OUTPUT FOR COMPONENT SPECIES NUMBER    1
     ------------------------------------------------------------
 -------------------------------------------------------------------------------------
 
 SOLVING FOR HEAD 

 Outer-Iteration  Inner-Iteration  Backtracking  Number of        Incoming       Outgoing      Cutoff     Maximum Head Change      Maximum Head Change
     Number           Count           Flag       Backtracks       Residual       Residual      Residual            Value               Location
        1                             0             0          0.296633E-01     0.296633E-01   -1.00000    
        1               12                                                                                       0.391147E-04               1280           GWF-node number
        2                             0             0          0.217278E-06     0.217278E-06   -1.00000    
        2                2                                                                                      -0.398362E-06               2015           GWF-node number
     2 CALLS TO SPARSE MATRIX SOLVER PACKAGE  IN FLOW TIME STEP     278 STRESS PERIOD       2

 TOTAL OF       2OUTER ITERATIONS
  MAXIMUM CHANGE FOR EACH ITERATION:
   MAX. CHANGE        NODE  MAX. CHANGE        NODE  MAX. CHANGE        NODE  MAX. CHANGE        NODE  MAX. CHANGE        NODE
 ------------------------------------------------------------------------------------------------------------------------------------
   0.39115E-04,       1280 -0.39836E-06,       2015

 NO OUTPUT CONTROL FOR STRESS PERIOD        2   TIME STEP      278



          TIME SUMMARY AT END OF TIME STEP       278 IN STRESS PERIOD         2
                    SECONDS     MINUTES      HOURS       DAYS        YEARS
                    -----------------------------------------------------------
   TIME STEP LENGTH  86.400      1.4400     2.40000E-02 1.00000E-03 2.73785E-06
 STRESS PERIOD TIME  24019.      400.32      6.6720     0.27800     7.61122E-04
         TOTAL TIME 1.10419E+05  1840.3      30.672      1.2780     3.49897E-03
1
 ------------------------------------------------------------------------------------------------------------
 
 SOLVING FOR TRANSPORT 

          SEQUENTIAL TRANSPORT ITERATION LOOP NUMBER    1
          -----------------------------------------------

 ------------------------------------------------------------------------------------------------------------------------
     1 CALLS TO SPARSE MATRIX SOLVER PACKAGE IN TRANSPORT TIME STEP     278 STRESS PERIOD       2 SPECIES  1

 TOTAL OF       1OUTER ITERATIONS
  MAXIMUM CHANGE FOR EACH ITERATION:
   MAX. CHANGE        NODE  MAX. CHANGE        NODE  MAX. CHANGE        NODE  MAX. CHANGE        NODE  MAX. CHANGE        NODE
 ------------------------------------------------------------------------------------------------------------------------------------
  -0.52813    ,       1280
     TRANSPORT SOLUTION COMPLETE FOR COMPONENT SPECIES NUMBER    1
     ------------------------------------------------------------

 TRANSPORT SOLUTION COMPLETE FOR ALL SPECIES, SORTING OUTPUT FOR CONCENTRATIONS AND MASS BALANCE
 ----------------------------------------------------------------------------------------------------
     TRANSPORT OUTPUT FOR COMPONENT SPECIES NUMBER    1
     ------------------------------------------------------------
 -------------------------------------------------------------------------------------
 
 SOLVING FOR HEAD 

 Outer-Iteration  Inner-Iteration  Backtracking  Number of        Incoming       Outgoing      Cutoff     Maximum Head Change      Maximum Head Change
     Number           Count           Flag       Backtracks       Residual       Residual      Residual            Value               Location
        1                             0             0          0.514087E-01     0.514087E-01   -1.00000    
        1               12                                                                                       0.465957E-04               1280           GWF-node number
        2                             0             0          0.310193E-06     0.310193E-06   -1.00000    
        2                1                                                                                      -0.527555E-06               1635           GWF-node number
     2 CALLS TO SPARSE MATRIX SOLVER PACKAGE  IN FLOW TIME STEP     279 STRESS PERIOD       2

 TOTAL OF       2OUTER ITERATIONS
  MAXIMUM CHANGE FOR EACH ITERATION:
   MAX. CHANGE        NODE  MAX. CHANGE        NODE  MAX. CHANGE        NODE  MAX. CHANGE        NODE  MAX. CHANGE        NODE
 ------------------------------------------------------------------------------------------------------------------------------------
   0.46596E-04,       1280 -0.52755E-06,       1635

 NO OUTPUT CONTROL FOR STRESS PERIOD        2   TIME STEP      279



          TIME SUMMARY AT END OF TIME STEP       279 IN STRESS PERIOD         2
                    SECONDS     MINUTES      HOURS       DAYS        YEARS
                    -----------------------------------------------------------
   TIME STEP LENGTH  86.400      1.4400     2.40000E-02 1.00000E-03 2.73785E-06
 STRESS PERIOD TIME  24106.      401.76      6.6960     0.27900     7.63860E-04
         TOTAL TIME 1.10506E+05  1841.8      30.696      1.2790     3.50171E-03
1
 ------------------------------------------------------------------------------------------------------------
 
 SOLVING FOR TRANSPORT 

          SEQUENTIAL TRANSPORT ITERATION LOOP NUMBER    1
          -----------------------------------------------

 ------------------------------------------------------------------------------------------------------------------------
     1 CALLS TO SPARSE MATRIX SOLVER PACKAGE IN TRANSPORT TIME STEP     279 STRESS PERIOD       2 SPECIES  1

 TOTAL OF       1OUTER ITERATIONS
  MAXIMUM CHANGE FOR EACH ITERATION:
   MAX. CHANGE        NODE  MAX. CHANGE        NODE  MAX. CHANGE        NODE  MAX. CHANGE        NODE  MAX. CHANGE        NODE
 ------------------------------------------------------------------------------------------------------------------------------------
  -0.49935    ,       1200
     TRANSPORT SOLUTION COMPLETE FOR COMPONENT SPECIES NUMBER    1
     ------------------------------------------------------------

 TRANSPORT SOLUTION COMPLETE FOR ALL SPECIES, SORTING OUTPUT FOR CONCENTRATIONS AND MASS BALANCE
 ----------------------------------------------------------------------------------------------------
     TRANSPORT OUTPUT FOR COMPONENT SPECIES NUMBER    1
     ------------------------------------------------------------
 -------------------------------------------------------------------------------------
 
 SOLVING FOR HEAD 

 Outer-Iteration  Inner-Iteration  Backtracking  Number of        Incoming       Outgoing      Cutoff     Maximum Head Change      Maximum Head Change
     Number           Count           Flag       Backtracks       Residual       Residual      Residual            Value               Location
        1                             0             0          0.302323E-01     0.302323E-01   -1.00000    
        1                9                                                                                       0.382740E-04               1200           GWF-node number
        2                             0             0          0.398460E-05     0.398460E-05   -1.00000    
        2                3                                                                                      -0.976628E-06               3137           GWF-node number
     2 CALLS TO SPARSE MATRIX SOLVER PACKAGE  IN FLOW TIME STEP     280 STRESS PERIOD       2

 TOTAL OF       2OUTER ITERATIONS
  MAXIMUM CHANGE FOR EACH ITERATION:
   MAX. CHANGE        NODE  MAX. CHANGE        NODE  MAX. CHANGE        NODE  MAX. CHANGE        NODE  MAX. CHANGE        NODE
 ------------------------------------------------------------------------------------------------------------------------------------
   0.38274E-04,       1200 -0.97663E-06,       3137

 NO OUTPUT CONTROL FOR STRESS PERIOD        2   TIME STEP      280



          TIME SUMMARY AT END OF TIME STEP       280 IN STRESS PERIOD         2
                    SECONDS     MINUTES      HOURS       DAYS        YEARS
                    -----------------------------------------------------------
   TIME STEP LENGTH  86.400      1.4400     2.40000E-02 1.00000E-03 2.73785E-06
 STRESS PERIOD TIME  24192.      403.20      6.7200     0.28000     7.66598E-04
         TOTAL TIME 1.10592E+05  1843.2      30.720      1.2800     3.50445E-03
1
 ------------------------------------------------------------------------------------------------------------
 
 SOLVING FOR TRANSPORT 

          SEQUENTIAL TRANSPORT ITERATION LOOP NUMBER    1
          -----------------------------------------------

 ------------------------------------------------------------------------------------------------------------------------
     1 CALLS TO SPARSE MATRIX SOLVER PACKAGE IN TRANSPORT TIME STEP     280 STRESS PERIOD       2 SPECIES  1

 TOTAL OF       1OUTER ITERATIONS
  MAXIMUM CHANGE FOR EACH ITERATION:
   MAX. CHANGE        NODE  MAX. CHANGE        NODE  MAX. CHANGE        NODE  MAX. CHANGE        NODE  MAX. CHANGE        NODE
 ------------------------------------------------------------------------------------------------------------------------------------
  -0.61444    ,       1200
     TRANSPORT SOLUTION COMPLETE FOR COMPONENT SPECIES NUMBER    1
     ------------------------------------------------------------

 TRANSPORT SOLUTION COMPLETE FOR ALL SPECIES, SORTING OUTPUT FOR CONCENTRATIONS AND MASS BALANCE
 ----------------------------------------------------------------------------------------------------
     TRANSPORT OUTPUT FOR COMPONENT SPECIES NUMBER    1
     ------------------------------------------------------------
 -------------------------------------------------------------------------------------
 
 SOLVING FOR HEAD 

 Outer-Iteration  Inner-Iteration  Backtracking  Number of        Incoming       Outgoing      Cutoff     Maximum Head Change      Maximum Head Change
     Number           Count           Flag       Backtracks       Residual       Residual      Residual            Value               Location
        1                             0             0          0.850860E-01     0.850860E-01   -1.00000    
        1               12                                                                                       0.582960E-04               1200           GWF-node number
        2                             0             0          0.214382E-05     0.214382E-05   -1.00000    
        2                1                                                                                      -0.580669E-06                820           GWF-node number
     2 CALLS TO SPARSE MATRIX SOLVER PACKAGE  IN FLOW TIME STEP     281 STRESS PERIOD       2

 TOTAL OF       2OUTER ITERATIONS
  MAXIMUM CHANGE FOR EACH ITERATION:
   MAX. CHANGE        NODE  MAX. CHANGE        NODE  MAX. CHANGE        NODE  MAX. CHANGE        NODE  MAX. CHANGE        NODE
 ------------------------------------------------------------------------------------------------------------------------------------
   0.58296E-04,       1200 -0.58067E-06,        820

 NO OUTPUT CONTROL FOR STRESS PERIOD        2   TIME STEP      281



          TIME SUMMARY AT END OF TIME STEP       281 IN STRESS PERIOD         2
                    SECONDS     MINUTES      HOURS       DAYS        YEARS
                    -----------------------------------------------------------
   TIME STEP LENGTH  86.400      1.4400     2.40000E-02 1.00000E-03 2.73785E-06
 STRESS PERIOD TIME  24278.      404.64      6.7440     0.28100     7.69336E-04
         TOTAL TIME 1.10678E+05  1844.6      30.744      1.2810     3.50719E-03
1
 ------------------------------------------------------------------------------------------------------------
 
 SOLVING FOR TRANSPORT 

          SEQUENTIAL TRANSPORT ITERATION LOOP NUMBER    1
          -----------------------------------------------

 ------------------------------------------------------------------------------------------------------------------------
     1 CALLS TO SPARSE MATRIX SOLVER PACKAGE IN TRANSPORT TIME STEP     281 STRESS PERIOD       2 SPECIES  1

 TOTAL OF       1OUTER ITERATIONS
  MAXIMUM CHANGE FOR EACH ITERATION:
   MAX. CHANGE        NODE  MAX. CHANGE        NODE  MAX. CHANGE        NODE  MAX. CHANGE        NODE  MAX. CHANGE        NODE
 ------------------------------------------------------------------------------------------------------------------------------------
   0.34924    ,       1440
     TRANSPORT SOLUTION COMPLETE FOR COMPONENT SPECIES NUMBER    1
     ------------------------------------------------------------

 TRANSPORT SOLUTION COMPLETE FOR ALL SPECIES, SORTING OUTPUT FOR CONCENTRATIONS AND MASS BALANCE
 ----------------------------------------------------------------------------------------------------
     TRANSPORT OUTPUT FOR COMPONENT SPECIES NUMBER    1
     ------------------------------------------------------------
 -------------------------------------------------------------------------------------
 
 SOLVING FOR HEAD 

 Outer-Iteration  Inner-Iteration  Backtracking  Number of        Incoming       Outgoing      Cutoff     Maximum Head Change      Maximum Head Change
     Number           Count           Flag       Backtracks       Residual       Residual      Residual            Value               Location
        1                             0             0          0.170841E-01     0.170841E-01   -1.00000    
        1               12                                                                                      -0.257747E-04               1358           GWF-node number
        2                             0             0          0.204078E-06     0.204078E-06   -1.00000    
        2                1                                                                                       0.235782E-06               2241           GWF-node number
     2 CALLS TO SPARSE MATRIX SOLVER PACKAGE  IN FLOW TIME STEP     282 STRESS PERIOD       2

 TOTAL OF       2OUTER ITERATIONS
  MAXIMUM CHANGE FOR EACH ITERATION:
   MAX. CHANGE        NODE  MAX. CHANGE        NODE  MAX. CHANGE        NODE  MAX. CHANGE        NODE  MAX. CHANGE        NODE
 ------------------------------------------------------------------------------------------------------------------------------------
  -0.25775E-04,       1358  0.23578E-06,       2241

 NO OUTPUT CONTROL FOR STRESS PERIOD        2   TIME STEP      282



          TIME SUMMARY AT END OF TIME STEP       282 IN STRESS PERIOD         2
                    SECONDS     MINUTES      HOURS       DAYS        YEARS
                    -----------------------------------------------------------
   TIME STEP LENGTH  86.400      1.4400     2.40000E-02 1.00000E-03 2.73785E-06
 STRESS PERIOD TIME  24365.      406.08      6.7680     0.28200     7.72074E-04
         TOTAL TIME 1.10765E+05  1846.1      30.768      1.2820     3.50992E-03
1
 ------------------------------------------------------------------------------------------------------------
 
 SOLVING FOR TRANSPORT 

          SEQUENTIAL TRANSPORT ITERATION LOOP NUMBER    1
          -----------------------------------------------

 ------------------------------------------------------------------------------------------------------------------------
     1 CALLS TO SPARSE MATRIX SOLVER PACKAGE IN TRANSPORT TIME STEP     282 STRESS PERIOD       2 SPECIES  1

 TOTAL OF       1OUTER ITERATIONS
  MAXIMUM CHANGE FOR EACH ITERATION:
   MAX. CHANGE        NODE  MAX. CHANGE        NODE  MAX. CHANGE        NODE  MAX. CHANGE        NODE  MAX. CHANGE        NODE
 ------------------------------------------------------------------------------------------------------------------------------------
   0.39684    ,       1440
     TRANSPORT SOLUTION COMPLETE FOR COMPONENT SPECIES NUMBER    1
     ------------------------------------------------------------

 TRANSPORT SOLUTION COMPLETE FOR ALL SPECIES, SORTING OUTPUT FOR CONCENTRATIONS AND MASS BALANCE
 ----------------------------------------------------------------------------------------------------
     TRANSPORT OUTPUT FOR COMPONENT SPECIES NUMBER    1
     ------------------------------------------------------------
 -------------------------------------------------------------------------------------
 
 SOLVING FOR HEAD 

 Outer-Iteration  Inner-Iteration  Backtracking  Number of        Incoming       Outgoing      Cutoff     Maximum Head Change      Maximum Head Change
     Number           Count           Flag       Backtracks       Residual       Residual      Residual            Value               Location
        1                             0             0          0.944434E-02     0.944434E-02   -1.00000    
        1               13                                                                                      -0.273578E-04               1440           GWF-node number
        2                             0             0          0.207478E-07     0.207478E-07   -1.00000    
        2                1                                                                                      -0.243782E-06               3121           GWF-node number
     2 CALLS TO SPARSE MATRIX SOLVER PACKAGE  IN FLOW TIME STEP     283 STRESS PERIOD       2

 TOTAL OF       2OUTER ITERATIONS
  MAXIMUM CHANGE FOR EACH ITERATION:
   MAX. CHANGE        NODE  MAX. CHANGE        NODE  MAX. CHANGE        NODE  MAX. CHANGE        NODE  MAX. CHANGE        NODE
 ------------------------------------------------------------------------------------------------------------------------------------
  -0.27358E-04,       1440 -0.24378E-06,       3121

 NO OUTPUT CONTROL FOR STRESS PERIOD        2   TIME STEP      283



          TIME SUMMARY AT END OF TIME STEP       283 IN STRESS PERIOD         2
                    SECONDS     MINUTES      HOURS       DAYS        YEARS
                    -----------------------------------------------------------
   TIME STEP LENGTH  86.400      1.4400     2.40000E-02 1.00000E-03 2.73785E-06
 STRESS PERIOD TIME  24451.      407.52      6.7920     0.28300     7.74812E-04
         TOTAL TIME 1.10851E+05  1847.5      30.792      1.2830     3.51266E-03
1
 ------------------------------------------------------------------------------------------------------------
 
 SOLVING FOR TRANSPORT 

          SEQUENTIAL TRANSPORT ITERATION LOOP NUMBER    1
          -----------------------------------------------

 ------------------------------------------------------------------------------------------------------------------------
     1 CALLS TO SPARSE MATRIX SOLVER PACKAGE IN TRANSPORT TIME STEP     283 STRESS PERIOD       2 SPECIES  1

 TOTAL OF       1OUTER ITERATIONS
  MAXIMUM CHANGE FOR EACH ITERATION:
   MAX. CHANGE        NODE  MAX. CHANGE        NODE  MAX. CHANGE        NODE  MAX. CHANGE        NODE  MAX. CHANGE        NODE
 ------------------------------------------------------------------------------------------------------------------------------------
   0.44061    ,       1360
     TRANSPORT SOLUTION COMPLETE FOR COMPONENT SPECIES NUMBER    1
     ------------------------------------------------------------

 TRANSPORT SOLUTION COMPLETE FOR ALL SPECIES, SORTING OUTPUT FOR CONCENTRATIONS AND MASS BALANCE
 ----------------------------------------------------------------------------------------------------
     TRANSPORT OUTPUT FOR COMPONENT SPECIES NUMBER    1
     ------------------------------------------------------------
 -------------------------------------------------------------------------------------
 
 SOLVING FOR HEAD 

 Outer-Iteration  Inner-Iteration  Backtracking  Number of        Incoming       Outgoing      Cutoff     Maximum Head Change      Maximum Head Change
     Number           Count           Flag       Backtracks       Residual       Residual      Residual            Value               Location
        1                             0             0          0.896320E-02     0.896320E-02   -1.00000    
        1               12                                                                                      -0.243359E-04               1360           GWF-node number
        2                             0             0          0.470654E-07     0.470654E-07   -1.00000    
        2                1                                                                                       0.167916E-06               3124           GWF-node number
     2 CALLS TO SPARSE MATRIX SOLVER PACKAGE  IN FLOW TIME STEP     284 STRESS PERIOD       2

 TOTAL OF       2OUTER ITERATIONS
  MAXIMUM CHANGE FOR EACH ITERATION:
   MAX. CHANGE        NODE  MAX. CHANGE        NODE  MAX. CHANGE        NODE  MAX. CHANGE        NODE  MAX. CHANGE        NODE
 ------------------------------------------------------------------------------------------------------------------------------------
  -0.24336E-04,       1360  0.16792E-06,       3124

 NO OUTPUT CONTROL FOR STRESS PERIOD        2   TIME STEP      284



          TIME SUMMARY AT END OF TIME STEP       284 IN STRESS PERIOD         2
                    SECONDS     MINUTES      HOURS       DAYS        YEARS
                    -----------------------------------------------------------
   TIME STEP LENGTH  86.400      1.4400     2.40000E-02 1.00000E-03 2.73785E-06
 STRESS PERIOD TIME  24538.      408.96      6.8160     0.28400     7.77550E-04
         TOTAL TIME 1.10938E+05  1849.0      30.816      1.2840     3.51540E-03
1
 ------------------------------------------------------------------------------------------------------------
 
 SOLVING FOR TRANSPORT 

          SEQUENTIAL TRANSPORT ITERATION LOOP NUMBER    1
          -----------------------------------------------

 ------------------------------------------------------------------------------------------------------------------------
     1 CALLS TO SPARSE MATRIX SOLVER PACKAGE IN TRANSPORT TIME STEP     284 STRESS PERIOD       2 SPECIES  1

 TOTAL OF       1OUTER ITERATIONS
  MAXIMUM CHANGE FOR EACH ITERATION:
   MAX. CHANGE        NODE  MAX. CHANGE        NODE  MAX. CHANGE        NODE  MAX. CHANGE        NODE  MAX. CHANGE        NODE
 ------------------------------------------------------------------------------------------------------------------------------------
   0.43172    ,       1360
     TRANSPORT SOLUTION COMPLETE FOR COMPONENT SPECIES NUMBER    1
     ------------------------------------------------------------

 TRANSPORT SOLUTION COMPLETE FOR ALL SPECIES, SORTING OUTPUT FOR CONCENTRATIONS AND MASS BALANCE
 ----------------------------------------------------------------------------------------------------
     TRANSPORT OUTPUT FOR COMPONENT SPECIES NUMBER    1
     ------------------------------------------------------------
 -------------------------------------------------------------------------------------
 
 SOLVING FOR HEAD 

 Outer-Iteration  Inner-Iteration  Backtracking  Number of        Incoming       Outgoing      Cutoff     Maximum Head Change      Maximum Head Change
     Number           Count           Flag       Backtracks       Residual       Residual      Residual            Value               Location
        1                             0             0          0.937261E-02     0.937261E-02   -1.00000    
        1               12                                                                                      -0.254458E-04               1360           GWF-node number
        2                             0             0          0.997684E-07     0.997684E-07   -1.00000    
        2                1                                                                                      -0.354378E-06               2721           GWF-node number
     2 CALLS TO SPARSE MATRIX SOLVER PACKAGE  IN FLOW TIME STEP     285 STRESS PERIOD       2

 TOTAL OF       2OUTER ITERATIONS
  MAXIMUM CHANGE FOR EACH ITERATION:
   MAX. CHANGE        NODE  MAX. CHANGE        NODE  MAX. CHANGE        NODE  MAX. CHANGE        NODE  MAX. CHANGE        NODE
 ------------------------------------------------------------------------------------------------------------------------------------
  -0.25446E-04,       1360 -0.35438E-06,       2721

 NO OUTPUT CONTROL FOR STRESS PERIOD        2   TIME STEP      285



          TIME SUMMARY AT END OF TIME STEP       285 IN STRESS PERIOD         2
                    SECONDS     MINUTES      HOURS       DAYS        YEARS
                    -----------------------------------------------------------
   TIME STEP LENGTH  86.400      1.4400     2.40000E-02 1.00000E-03 2.73785E-06
 STRESS PERIOD TIME  24624.      410.40      6.8400     0.28500     7.80287E-04
         TOTAL TIME 1.11024E+05  1850.4      30.840      1.2850     3.51814E-03
1
 ------------------------------------------------------------------------------------------------------------
 
 SOLVING FOR TRANSPORT 

          SEQUENTIAL TRANSPORT ITERATION LOOP NUMBER    1
          -----------------------------------------------

 ------------------------------------------------------------------------------------------------------------------------
     1 CALLS TO SPARSE MATRIX SOLVER PACKAGE IN TRANSPORT TIME STEP     285 STRESS PERIOD       2 SPECIES  1

 TOTAL OF       1OUTER ITERATIONS
  MAXIMUM CHANGE FOR EACH ITERATION:
   MAX. CHANGE        NODE  MAX. CHANGE        NODE  MAX. CHANGE        NODE  MAX. CHANGE        NODE  MAX. CHANGE        NODE
 ------------------------------------------------------------------------------------------------------------------------------------
   0.39695    ,       1280
     TRANSPORT SOLUTION COMPLETE FOR COMPONENT SPECIES NUMBER    1
     ------------------------------------------------------------

 TRANSPORT SOLUTION COMPLETE FOR ALL SPECIES, SORTING OUTPUT FOR CONCENTRATIONS AND MASS BALANCE
 ----------------------------------------------------------------------------------------------------
     TRANSPORT OUTPUT FOR COMPONENT SPECIES NUMBER    1
     ------------------------------------------------------------
 -------------------------------------------------------------------------------------
 
 SOLVING FOR HEAD 

 Outer-Iteration  Inner-Iteration  Backtracking  Number of        Incoming       Outgoing      Cutoff     Maximum Head Change      Maximum Head Change
     Number           Count           Flag       Backtracks       Residual       Residual      Residual            Value               Location
        1                             0             0          0.714270E-02     0.714270E-02   -1.00000    
        1               12                                                                                       0.202836E-04                870           GWF-node number
        2                             0             0          0.952653E-07     0.952653E-07   -1.00000    
        2                1                                                                                       0.350256E-06                816           GWF-node number
     2 CALLS TO SPARSE MATRIX SOLVER PACKAGE  IN FLOW TIME STEP     286 STRESS PERIOD       2

 TOTAL OF       2OUTER ITERATIONS
  MAXIMUM CHANGE FOR EACH ITERATION:
   MAX. CHANGE        NODE  MAX. CHANGE        NODE  MAX. CHANGE        NODE  MAX. CHANGE        NODE  MAX. CHANGE        NODE
 ------------------------------------------------------------------------------------------------------------------------------------
   0.20284E-04,        870  0.35026E-06,        816

 NO OUTPUT CONTROL FOR STRESS PERIOD        2   TIME STEP      286



          TIME SUMMARY AT END OF TIME STEP       286 IN STRESS PERIOD         2
                    SECONDS     MINUTES      HOURS       DAYS        YEARS
                    -----------------------------------------------------------
   TIME STEP LENGTH  86.400      1.4400     2.40000E-02 1.00000E-03 2.73785E-06
 STRESS PERIOD TIME  24710.      411.84      6.8640     0.28600     7.83025E-04
         TOTAL TIME 1.11110E+05  1851.8      30.864      1.2860     3.52088E-03
1
 ------------------------------------------------------------------------------------------------------------
 
 SOLVING FOR TRANSPORT 

          SEQUENTIAL TRANSPORT ITERATION LOOP NUMBER    1
          -----------------------------------------------

 ------------------------------------------------------------------------------------------------------------------------
     1 CALLS TO SPARSE MATRIX SOLVER PACKAGE IN TRANSPORT TIME STEP     286 STRESS PERIOD       2 SPECIES  1

 TOTAL OF       1OUTER ITERATIONS
  MAXIMUM CHANGE FOR EACH ITERATION:
   MAX. CHANGE        NODE  MAX. CHANGE        NODE  MAX. CHANGE        NODE  MAX. CHANGE        NODE  MAX. CHANGE        NODE
 ------------------------------------------------------------------------------------------------------------------------------------
   0.39006    ,       1280
     TRANSPORT SOLUTION COMPLETE FOR COMPONENT SPECIES NUMBER    1
     ------------------------------------------------------------

 TRANSPORT SOLUTION COMPLETE FOR ALL SPECIES, SORTING OUTPUT FOR CONCENTRATIONS AND MASS BALANCE
 ----------------------------------------------------------------------------------------------------
     TRANSPORT OUTPUT FOR COMPONENT SPECIES NUMBER    1
     ------------------------------------------------------------
 -------------------------------------------------------------------------------------
 
 SOLVING FOR HEAD 

 Outer-Iteration  Inner-Iteration  Backtracking  Number of        Incoming       Outgoing      Cutoff     Maximum Head Change      Maximum Head Change
     Number           Count           Flag       Backtracks       Residual       Residual      Residual            Value               Location
        1                             0             0          0.791599E-02     0.791599E-02   -1.00000    
        1               10                                                                                      -0.213291E-04               1280           GWF-node number
        2                             0             0          0.107217E-04     0.107217E-04   -1.00000    
        2                2                                                                                       0.228207E-05               3145           GWF-node number
     2 CALLS TO SPARSE MATRIX SOLVER PACKAGE  IN FLOW TIME STEP     287 STRESS PERIOD       2

 TOTAL OF       2OUTER ITERATIONS
  MAXIMUM CHANGE FOR EACH ITERATION:
   MAX. CHANGE        NODE  MAX. CHANGE        NODE  MAX. CHANGE        NODE  MAX. CHANGE        NODE  MAX. CHANGE        NODE
 ------------------------------------------------------------------------------------------------------------------------------------
  -0.21329E-04,       1280  0.22821E-05,       3145

 NO OUTPUT CONTROL FOR STRESS PERIOD        2   TIME STEP      287



          TIME SUMMARY AT END OF TIME STEP       287 IN STRESS PERIOD         2
                    SECONDS     MINUTES      HOURS       DAYS        YEARS
                    -----------------------------------------------------------
   TIME STEP LENGTH  86.400      1.4400     2.40000E-02 1.00000E-03 2.73785E-06
 STRESS PERIOD TIME  24797.      413.28      6.8880     0.28700     7.85763E-04
         TOTAL TIME 1.11197E+05  1853.3      30.888      1.2870     3.52361E-03
1
 ------------------------------------------------------------------------------------------------------------
 
 SOLVING FOR TRANSPORT 

          SEQUENTIAL TRANSPORT ITERATION LOOP NUMBER    1
          -----------------------------------------------

 ------------------------------------------------------------------------------------------------------------------------
     1 CALLS TO SPARSE MATRIX SOLVER PACKAGE IN TRANSPORT TIME STEP     287 STRESS PERIOD       2 SPECIES  1

 TOTAL OF       1OUTER ITERATIONS
  MAXIMUM CHANGE FOR EACH ITERATION:
   MAX. CHANGE        NODE  MAX. CHANGE        NODE  MAX. CHANGE        NODE  MAX. CHANGE        NODE  MAX. CHANGE        NODE
 ------------------------------------------------------------------------------------------------------------------------------------
   0.33154    ,       1120
     TRANSPORT SOLUTION COMPLETE FOR COMPONENT SPECIES NUMBER    1
     ------------------------------------------------------------

 TRANSPORT SOLUTION COMPLETE FOR ALL SPECIES, SORTING OUTPUT FOR CONCENTRATIONS AND MASS BALANCE
 ----------------------------------------------------------------------------------------------------
     TRANSPORT OUTPUT FOR COMPONENT SPECIES NUMBER    1
     ------------------------------------------------------------
 -------------------------------------------------------------------------------------
 
 SOLVING FOR HEAD 

 Outer-Iteration  Inner-Iteration  Backtracking  Number of        Incoming       Outgoing      Cutoff     Maximum Head Change      Maximum Head Change
     Number           Count           Flag       Backtracks       Residual       Residual      Residual            Value               Location
        1                             0             0          0.773677E-02     0.773677E-02   -1.00000    
        1               12                                                                                      -0.196934E-04               1280           GWF-node number
        2                             0             0          0.608150E-07     0.608150E-07   -1.00000    
        2                1                                                                                      -0.313543E-06               2411           GWF-node number
     2 CALLS TO SPARSE MATRIX SOLVER PACKAGE  IN FLOW TIME STEP     288 STRESS PERIOD       2

 TOTAL OF       2OUTER ITERATIONS
  MAXIMUM CHANGE FOR EACH ITERATION:
   MAX. CHANGE        NODE  MAX. CHANGE        NODE  MAX. CHANGE        NODE  MAX. CHANGE        NODE  MAX. CHANGE        NODE
 ------------------------------------------------------------------------------------------------------------------------------------
  -0.19693E-04,       1280 -0.31354E-06,       2411

 NO OUTPUT CONTROL FOR STRESS PERIOD        2   TIME STEP      288



          TIME SUMMARY AT END OF TIME STEP       288 IN STRESS PERIOD         2
                    SECONDS     MINUTES      HOURS       DAYS        YEARS
                    -----------------------------------------------------------
   TIME STEP LENGTH  86.400      1.4400     2.40000E-02 1.00000E-03 2.73785E-06
 STRESS PERIOD TIME  24883.      414.72      6.9120     0.28800     7.88501E-04
         TOTAL TIME 1.11283E+05  1854.7      30.912      1.2880     3.52635E-03
1
 ------------------------------------------------------------------------------------------------------------
 
 SOLVING FOR TRANSPORT 

          SEQUENTIAL TRANSPORT ITERATION LOOP NUMBER    1
          -----------------------------------------------

 ------------------------------------------------------------------------------------------------------------------------
     1 CALLS TO SPARSE MATRIX SOLVER PACKAGE IN TRANSPORT TIME STEP     288 STRESS PERIOD       2 SPECIES  1

 TOTAL OF       1OUTER ITERATIONS
  MAXIMUM CHANGE FOR EACH ITERATION:
   MAX. CHANGE        NODE  MAX. CHANGE        NODE  MAX. CHANGE        NODE  MAX. CHANGE        NODE  MAX. CHANGE        NODE
 ------------------------------------------------------------------------------------------------------------------------------------
   0.27970    ,        960
     TRANSPORT SOLUTION COMPLETE FOR COMPONENT SPECIES NUMBER    1
     ------------------------------------------------------------

 TRANSPORT SOLUTION COMPLETE FOR ALL SPECIES, SORTING OUTPUT FOR CONCENTRATIONS AND MASS BALANCE
 ----------------------------------------------------------------------------------------------------
     TRANSPORT OUTPUT FOR COMPONENT SPECIES NUMBER    1
     ------------------------------------------------------------
 -------------------------------------------------------------------------------------
 
 SOLVING FOR HEAD 

 Outer-Iteration  Inner-Iteration  Backtracking  Number of        Incoming       Outgoing      Cutoff     Maximum Head Change      Maximum Head Change
     Number           Count           Flag       Backtracks       Residual       Residual      Residual            Value               Location
        1                             0             0          0.471954E-02     0.471954E-02   -1.00000    
        1               11                                                                                       0.158600E-04               1519           GWF-node number
        2                             0             0          0.288904E-06     0.288904E-06   -1.00000    
        2                1                                                                                       0.360023E-06               1249           GWF-node number
     2 CALLS TO SPARSE MATRIX SOLVER PACKAGE  IN FLOW TIME STEP     289 STRESS PERIOD       2

 TOTAL OF       2OUTER ITERATIONS
  MAXIMUM CHANGE FOR EACH ITERATION:
   MAX. CHANGE        NODE  MAX. CHANGE        NODE  MAX. CHANGE        NODE  MAX. CHANGE        NODE  MAX. CHANGE        NODE
 ------------------------------------------------------------------------------------------------------------------------------------
   0.15860E-04,       1519  0.36002E-06,       1249

 NO OUTPUT CONTROL FOR STRESS PERIOD        2   TIME STEP      289



          TIME SUMMARY AT END OF TIME STEP       289 IN STRESS PERIOD         2
                    SECONDS     MINUTES      HOURS       DAYS        YEARS
                    -----------------------------------------------------------
   TIME STEP LENGTH  86.400      1.4400     2.40000E-02 1.00000E-03 2.73785E-06
 STRESS PERIOD TIME  24970.      416.16      6.9360     0.28900     7.91239E-04
         TOTAL TIME 1.11370E+05  1856.2      30.936      1.2890     3.52909E-03
1
 ------------------------------------------------------------------------------------------------------------
 
 SOLVING FOR TRANSPORT 

          SEQUENTIAL TRANSPORT ITERATION LOOP NUMBER    1
          -----------------------------------------------

 ------------------------------------------------------------------------------------------------------------------------
     1 CALLS TO SPARSE MATRIX SOLVER PACKAGE IN TRANSPORT TIME STEP     289 STRESS PERIOD       2 SPECIES  1

 TOTAL OF       1OUTER ITERATIONS
  MAXIMUM CHANGE FOR EACH ITERATION:
   MAX. CHANGE        NODE  MAX. CHANGE        NODE  MAX. CHANGE        NODE  MAX. CHANGE        NODE  MAX. CHANGE        NODE
 ------------------------------------------------------------------------------------------------------------------------------------
   0.22134    ,        960
     TRANSPORT SOLUTION COMPLETE FOR COMPONENT SPECIES NUMBER    1
     ------------------------------------------------------------

 TRANSPORT SOLUTION COMPLETE FOR ALL SPECIES, SORTING OUTPUT FOR CONCENTRATIONS AND MASS BALANCE
 ----------------------------------------------------------------------------------------------------
     TRANSPORT OUTPUT FOR COMPONENT SPECIES NUMBER    1
     ------------------------------------------------------------
 -------------------------------------------------------------------------------------
 
 SOLVING FOR HEAD 

 Outer-Iteration  Inner-Iteration  Backtracking  Number of        Incoming       Outgoing      Cutoff     Maximum Head Change      Maximum Head Change
     Number           Count           Flag       Backtracks       Residual       Residual      Residual            Value               Location
        1                             0             0          0.313154E-02     0.313154E-02   -1.00000    
        1               11                                                                                       0.166856E-04               1517           GWF-node number
        2                             0             0          0.234835E-06     0.234835E-06   -1.00000    
        2                1                                                                                       0.720689E-06               3125           GWF-node number
     2 CALLS TO SPARSE MATRIX SOLVER PACKAGE  IN FLOW TIME STEP     290 STRESS PERIOD       2

 TOTAL OF       2OUTER ITERATIONS
  MAXIMUM CHANGE FOR EACH ITERATION:
   MAX. CHANGE        NODE  MAX. CHANGE        NODE  MAX. CHANGE        NODE  MAX. CHANGE        NODE  MAX. CHANGE        NODE
 ------------------------------------------------------------------------------------------------------------------------------------
   0.16686E-04,       1517  0.72069E-06,       3125

 NO OUTPUT CONTROL FOR STRESS PERIOD        2   TIME STEP      290



          TIME SUMMARY AT END OF TIME STEP       290 IN STRESS PERIOD         2
                    SECONDS     MINUTES      HOURS       DAYS        YEARS
                    -----------------------------------------------------------
   TIME STEP LENGTH  86.400      1.4400     2.40000E-02 1.00000E-03 2.73785E-06
 STRESS PERIOD TIME  25056.      417.60      6.9600     0.29000     7.93977E-04
         TOTAL TIME 1.11456E+05  1857.6      30.960      1.2900     3.53183E-03
1
 ------------------------------------------------------------------------------------------------------------
 
 SOLVING FOR TRANSPORT 

          SEQUENTIAL TRANSPORT ITERATION LOOP NUMBER    1
          -----------------------------------------------

 ------------------------------------------------------------------------------------------------------------------------
     1 CALLS TO SPARSE MATRIX SOLVER PACKAGE IN TRANSPORT TIME STEP     290 STRESS PERIOD       2 SPECIES  1

 TOTAL OF       1OUTER ITERATIONS
  MAXIMUM CHANGE FOR EACH ITERATION:
   MAX. CHANGE        NODE  MAX. CHANGE        NODE  MAX. CHANGE        NODE  MAX. CHANGE        NODE  MAX. CHANGE        NODE
 ------------------------------------------------------------------------------------------------------------------------------------
   0.16679    ,        880
     TRANSPORT SOLUTION COMPLETE FOR COMPONENT SPECIES NUMBER    1
     ------------------------------------------------------------

 TRANSPORT SOLUTION COMPLETE FOR ALL SPECIES, SORTING OUTPUT FOR CONCENTRATIONS AND MASS BALANCE
 ----------------------------------------------------------------------------------------------------
     TRANSPORT OUTPUT FOR COMPONENT SPECIES NUMBER    1
     ------------------------------------------------------------
 -------------------------------------------------------------------------------------
 
 SOLVING FOR HEAD 

 Outer-Iteration  Inner-Iteration  Backtracking  Number of        Incoming       Outgoing      Cutoff     Maximum Head Change      Maximum Head Change
     Number           Count           Flag       Backtracks       Residual       Residual      Residual            Value               Location
        1                             0             0          0.319775E-02     0.319775E-02   -1.00000    
        1               11                                                                                       0.171324E-04               1438           GWF-node number
        2                             0             0          0.106927E-06     0.106927E-06   -1.00000    
        2                1                                                                                      -0.279840E-06               2561           GWF-node number
     2 CALLS TO SPARSE MATRIX SOLVER PACKAGE  IN FLOW TIME STEP     291 STRESS PERIOD       2

 TOTAL OF       2OUTER ITERATIONS
  MAXIMUM CHANGE FOR EACH ITERATION:
   MAX. CHANGE        NODE  MAX. CHANGE        NODE  MAX. CHANGE        NODE  MAX. CHANGE        NODE  MAX. CHANGE        NODE
 ------------------------------------------------------------------------------------------------------------------------------------
   0.17132E-04,       1438 -0.27984E-06,       2561

 NO OUTPUT CONTROL FOR STRESS PERIOD        2   TIME STEP      291



          TIME SUMMARY AT END OF TIME STEP       291 IN STRESS PERIOD         2
                    SECONDS     MINUTES      HOURS       DAYS        YEARS
                    -----------------------------------------------------------
   TIME STEP LENGTH  86.400      1.4400     2.40000E-02 1.00000E-03 2.73785E-06
 STRESS PERIOD TIME  25142.      419.04      6.9840     0.29100     7.96715E-04
         TOTAL TIME 1.11542E+05  1859.0      30.984      1.2910     3.53457E-03
1
 ------------------------------------------------------------------------------------------------------------
 
 SOLVING FOR TRANSPORT 

          SEQUENTIAL TRANSPORT ITERATION LOOP NUMBER    1
          -----------------------------------------------

 ------------------------------------------------------------------------------------------------------------------------
     1 CALLS TO SPARSE MATRIX SOLVER PACKAGE IN TRANSPORT TIME STEP     291 STRESS PERIOD       2 SPECIES  1

 TOTAL OF       1OUTER ITERATIONS
  MAXIMUM CHANGE FOR EACH ITERATION:
   MAX. CHANGE        NODE  MAX. CHANGE        NODE  MAX. CHANGE        NODE  MAX. CHANGE        NODE  MAX. CHANGE        NODE
 ------------------------------------------------------------------------------------------------------------------------------------
  -0.16630    ,       1520
     TRANSPORT SOLUTION COMPLETE FOR COMPONENT SPECIES NUMBER    1
     ------------------------------------------------------------

 TRANSPORT SOLUTION COMPLETE FOR ALL SPECIES, SORTING OUTPUT FOR CONCENTRATIONS AND MASS BALANCE
 ----------------------------------------------------------------------------------------------------
     TRANSPORT OUTPUT FOR COMPONENT SPECIES NUMBER    1
     ------------------------------------------------------------
 -------------------------------------------------------------------------------------
 
 SOLVING FOR HEAD 

 Outer-Iteration  Inner-Iteration  Backtracking  Number of        Incoming       Outgoing      Cutoff     Maximum Head Change      Maximum Head Change
     Number           Count           Flag       Backtracks       Residual       Residual      Residual            Value               Location
        1                             0             0          0.375099E-02     0.375099E-02   -1.00000    
        1                8                                                                                       0.192995E-04               1438           GWF-node number
        2                             0             0          0.199416E-05     0.199416E-05   -1.00000    
        2                1                                                                                       0.797467E-06               1310           GWF-node number
     2 CALLS TO SPARSE MATRIX SOLVER PACKAGE  IN FLOW TIME STEP     292 STRESS PERIOD       2

 TOTAL OF       2OUTER ITERATIONS
  MAXIMUM CHANGE FOR EACH ITERATION:
   MAX. CHANGE        NODE  MAX. CHANGE        NODE  MAX. CHANGE        NODE  MAX. CHANGE        NODE  MAX. CHANGE        NODE
 ------------------------------------------------------------------------------------------------------------------------------------
   0.19300E-04,       1438  0.79747E-06,       1310

 NO OUTPUT CONTROL FOR STRESS PERIOD        2   TIME STEP      292



          TIME SUMMARY AT END OF TIME STEP       292 IN STRESS PERIOD         2
                    SECONDS     MINUTES      HOURS       DAYS        YEARS
                    -----------------------------------------------------------
   TIME STEP LENGTH  86.400      1.4400     2.40000E-02 1.00000E-03 2.73785E-06
 STRESS PERIOD TIME  25229.      420.48      7.0080     0.29200     7.99452E-04
         TOTAL TIME 1.11629E+05  1860.5      31.008      1.2920     3.53730E-03
1
 ------------------------------------------------------------------------------------------------------------
 
 SOLVING FOR TRANSPORT 

          SEQUENTIAL TRANSPORT ITERATION LOOP NUMBER    1
          -----------------------------------------------

 ------------------------------------------------------------------------------------------------------------------------
     1 CALLS TO SPARSE MATRIX SOLVER PACKAGE IN TRANSPORT TIME STEP     292 STRESS PERIOD       2 SPECIES  1

 TOTAL OF       1OUTER ITERATIONS
  MAXIMUM CHANGE FOR EACH ITERATION:
   MAX. CHANGE        NODE  MAX. CHANGE        NODE  MAX. CHANGE        NODE  MAX. CHANGE        NODE  MAX. CHANGE        NODE
 ------------------------------------------------------------------------------------------------------------------------------------
  -0.19328    ,       1520
     TRANSPORT SOLUTION COMPLETE FOR COMPONENT SPECIES NUMBER    1
     ------------------------------------------------------------

 TRANSPORT SOLUTION COMPLETE FOR ALL SPECIES, SORTING OUTPUT FOR CONCENTRATIONS AND MASS BALANCE
 ----------------------------------------------------------------------------------------------------
     TRANSPORT OUTPUT FOR COMPONENT SPECIES NUMBER    1
     ------------------------------------------------------------
 -------------------------------------------------------------------------------------
 
 SOLVING FOR HEAD 

 Outer-Iteration  Inner-Iteration  Backtracking  Number of        Incoming       Outgoing      Cutoff     Maximum Head Change      Maximum Head Change
     Number           Count           Flag       Backtracks       Residual       Residual      Residual            Value               Location
        1                             0             0          0.500660E-02     0.500660E-02   -1.00000    
        1                8                                                                                       0.231177E-04               1438           GWF-node number
        2                             0             0          0.500629E-05     0.500629E-05   -1.00000    
        2                3                                                                                       0.196078E-05               3135           GWF-node number
     2 CALLS TO SPARSE MATRIX SOLVER PACKAGE  IN FLOW TIME STEP     293 STRESS PERIOD       2

 TOTAL OF       2OUTER ITERATIONS
  MAXIMUM CHANGE FOR EACH ITERATION:
   MAX. CHANGE        NODE  MAX. CHANGE        NODE  MAX. CHANGE        NODE  MAX. CHANGE        NODE  MAX. CHANGE        NODE
 ------------------------------------------------------------------------------------------------------------------------------------
   0.23118E-04,       1438  0.19608E-05,       3135

 NO OUTPUT CONTROL FOR STRESS PERIOD        2   TIME STEP      293



          TIME SUMMARY AT END OF TIME STEP       293 IN STRESS PERIOD         2
                    SECONDS     MINUTES      HOURS       DAYS        YEARS
                    -----------------------------------------------------------
   TIME STEP LENGTH  86.400      1.4400     2.40000E-02 1.00000E-03 2.73785E-06
 STRESS PERIOD TIME  25315.      421.92      7.0320     0.29300     8.02190E-04
         TOTAL TIME 1.11715E+05  1861.9      31.032      1.2930     3.54004E-03
1
 ------------------------------------------------------------------------------------------------------------
 
 SOLVING FOR TRANSPORT 

          SEQUENTIAL TRANSPORT ITERATION LOOP NUMBER    1
          -----------------------------------------------

 ------------------------------------------------------------------------------------------------------------------------
     1 CALLS TO SPARSE MATRIX SOLVER PACKAGE IN TRANSPORT TIME STEP     293 STRESS PERIOD       2 SPECIES  1

 TOTAL OF       1OUTER ITERATIONS
  MAXIMUM CHANGE FOR EACH ITERATION:
   MAX. CHANGE        NODE  MAX. CHANGE        NODE  MAX. CHANGE        NODE  MAX. CHANGE        NODE  MAX. CHANGE        NODE
 ------------------------------------------------------------------------------------------------------------------------------------
  -0.24429    ,       1440
     TRANSPORT SOLUTION COMPLETE FOR COMPONENT SPECIES NUMBER    1
     ------------------------------------------------------------

 TRANSPORT SOLUTION COMPLETE FOR ALL SPECIES, SORTING OUTPUT FOR CONCENTRATIONS AND MASS BALANCE
 ----------------------------------------------------------------------------------------------------
     TRANSPORT OUTPUT FOR COMPONENT SPECIES NUMBER    1
     ------------------------------------------------------------
 -------------------------------------------------------------------------------------
 
 SOLVING FOR HEAD 

 Outer-Iteration  Inner-Iteration  Backtracking  Number of        Incoming       Outgoing      Cutoff     Maximum Head Change      Maximum Head Change
     Number           Count           Flag       Backtracks       Residual       Residual      Residual            Value               Location
        1                             0             0          0.511438E-02     0.511438E-02   -1.00000    
        1               10                                                                                       0.173297E-04               1438           GWF-node number
        2                             0             0          0.217574E-05     0.217574E-05   -1.00000    
        2                3                                                                                       0.572189E-06               3173           GWF-node number
     2 CALLS TO SPARSE MATRIX SOLVER PACKAGE  IN FLOW TIME STEP     294 STRESS PERIOD       2

 TOTAL OF       2OUTER ITERATIONS
  MAXIMUM CHANGE FOR EACH ITERATION:
   MAX. CHANGE        NODE  MAX. CHANGE        NODE  MAX. CHANGE        NODE  MAX. CHANGE        NODE  MAX. CHANGE        NODE
 ------------------------------------------------------------------------------------------------------------------------------------
   0.17330E-04,       1438  0.57219E-06,       3173

 NO OUTPUT CONTROL FOR STRESS PERIOD        2   TIME STEP      294



          TIME SUMMARY AT END OF TIME STEP       294 IN STRESS PERIOD         2
                    SECONDS     MINUTES      HOURS       DAYS        YEARS
                    -----------------------------------------------------------
   TIME STEP LENGTH  86.400      1.4400     2.40000E-02 1.00000E-03 2.73785E-06
 STRESS PERIOD TIME  25402.      423.36      7.0560     0.29400     8.04928E-04
         TOTAL TIME 1.11802E+05  1863.4      31.056      1.2940     3.54278E-03
1
 ------------------------------------------------------------------------------------------------------------
 
 SOLVING FOR TRANSPORT 

          SEQUENTIAL TRANSPORT ITERATION LOOP NUMBER    1
          -----------------------------------------------

 ------------------------------------------------------------------------------------------------------------------------
     1 CALLS TO SPARSE MATRIX SOLVER PACKAGE IN TRANSPORT TIME STEP     294 STRESS PERIOD       2 SPECIES  1

 TOTAL OF       1OUTER ITERATIONS
  MAXIMUM CHANGE FOR EACH ITERATION:
   MAX. CHANGE        NODE  MAX. CHANGE        NODE  MAX. CHANGE        NODE  MAX. CHANGE        NODE  MAX. CHANGE        NODE
 ------------------------------------------------------------------------------------------------------------------------------------
  -0.30079    ,       1440
     TRANSPORT SOLUTION COMPLETE FOR COMPONENT SPECIES NUMBER    1
     ------------------------------------------------------------

 TRANSPORT SOLUTION COMPLETE FOR ALL SPECIES, SORTING OUTPUT FOR CONCENTRATIONS AND MASS BALANCE
 ----------------------------------------------------------------------------------------------------
     TRANSPORT OUTPUT FOR COMPONENT SPECIES NUMBER    1
     ------------------------------------------------------------
 -------------------------------------------------------------------------------------
 
 SOLVING FOR HEAD 

 Outer-Iteration  Inner-Iteration  Backtracking  Number of        Incoming       Outgoing      Cutoff     Maximum Head Change      Maximum Head Change
     Number           Count           Flag       Backtracks       Residual       Residual      Residual            Value               Location
        1                             0             0          0.738050E-02     0.738050E-02   -1.00000    
        1                7                                                                                       0.242839E-04               1439           GWF-node number
        2                             0             0          0.148746E-04     0.148746E-04   -1.00000    
        2                3                                                                                       0.339267E-05               3137           GWF-node number
     2 CALLS TO SPARSE MATRIX SOLVER PACKAGE  IN FLOW TIME STEP     295 STRESS PERIOD       2

 TOTAL OF       2OUTER ITERATIONS
  MAXIMUM CHANGE FOR EACH ITERATION:
   MAX. CHANGE        NODE  MAX. CHANGE        NODE  MAX. CHANGE        NODE  MAX. CHANGE        NODE  MAX. CHANGE        NODE
 ------------------------------------------------------------------------------------------------------------------------------------
   0.24284E-04,       1439  0.33927E-05,       3137

 NO OUTPUT CONTROL FOR STRESS PERIOD        2   TIME STEP      295



          TIME SUMMARY AT END OF TIME STEP       295 IN STRESS PERIOD         2
                    SECONDS     MINUTES      HOURS       DAYS        YEARS
                    -----------------------------------------------------------
   TIME STEP LENGTH  86.400      1.4400     2.40000E-02 1.00000E-03 2.73785E-06
 STRESS PERIOD TIME  25488.      424.80      7.0800     0.29500     8.07666E-04
         TOTAL TIME 1.11888E+05  1864.8      31.080      1.2950     3.54552E-03
1
 ------------------------------------------------------------------------------------------------------------
 
 SOLVING FOR TRANSPORT 

          SEQUENTIAL TRANSPORT ITERATION LOOP NUMBER    1
          -----------------------------------------------

 ------------------------------------------------------------------------------------------------------------------------
     1 CALLS TO SPARSE MATRIX SOLVER PACKAGE IN TRANSPORT TIME STEP     295 STRESS PERIOD       2 SPECIES  1

 TOTAL OF       1OUTER ITERATIONS
  MAXIMUM CHANGE FOR EACH ITERATION:
   MAX. CHANGE        NODE  MAX. CHANGE        NODE  MAX. CHANGE        NODE  MAX. CHANGE        NODE  MAX. CHANGE        NODE
 ------------------------------------------------------------------------------------------------------------------------------------
  -0.27681    ,       1360
     TRANSPORT SOLUTION COMPLETE FOR COMPONENT SPECIES NUMBER    1
     ------------------------------------------------------------

 TRANSPORT SOLUTION COMPLETE FOR ALL SPECIES, SORTING OUTPUT FOR CONCENTRATIONS AND MASS BALANCE
 ----------------------------------------------------------------------------------------------------
     TRANSPORT OUTPUT FOR COMPONENT SPECIES NUMBER    1
     ------------------------------------------------------------
 -------------------------------------------------------------------------------------
 
 SOLVING FOR HEAD 

 Outer-Iteration  Inner-Iteration  Backtracking  Number of        Incoming       Outgoing      Cutoff     Maximum Head Change      Maximum Head Change
     Number           Count           Flag       Backtracks       Residual       Residual      Residual            Value               Location
        1                             0             0          0.684341E-02     0.684341E-02   -1.00000    
        1               12                                                                                       0.279564E-04               1359           GWF-node number
        2                             0             0          0.968443E-07     0.968443E-07   -1.00000    
        2                1                                                                                      -0.186021E-06               1873           GWF-node number
     2 CALLS TO SPARSE MATRIX SOLVER PACKAGE  IN FLOW TIME STEP     296 STRESS PERIOD       2

 TOTAL OF       2OUTER ITERATIONS
  MAXIMUM CHANGE FOR EACH ITERATION:
   MAX. CHANGE        NODE  MAX. CHANGE        NODE  MAX. CHANGE        NODE  MAX. CHANGE        NODE  MAX. CHANGE        NODE
 ------------------------------------------------------------------------------------------------------------------------------------
   0.27956E-04,       1359 -0.18602E-06,       1873

 NO OUTPUT CONTROL FOR STRESS PERIOD        2   TIME STEP      296



          TIME SUMMARY AT END OF TIME STEP       296 IN STRESS PERIOD         2
                    SECONDS     MINUTES      HOURS       DAYS        YEARS
                    -----------------------------------------------------------
   TIME STEP LENGTH  86.400      1.4400     2.40000E-02 1.00000E-03 2.73785E-06
 STRESS PERIOD TIME  25574.      426.24      7.1040     0.29600     8.10404E-04
         TOTAL TIME 1.11974E+05  1866.2      31.104      1.2960     3.54825E-03
1
 ------------------------------------------------------------------------------------------------------------
 
 SOLVING FOR TRANSPORT 

          SEQUENTIAL TRANSPORT ITERATION LOOP NUMBER    1
          -----------------------------------------------

 ------------------------------------------------------------------------------------------------------------------------
     1 CALLS TO SPARSE MATRIX SOLVER PACKAGE IN TRANSPORT TIME STEP     296 STRESS PERIOD       2 SPECIES  1

 TOTAL OF       1OUTER ITERATIONS
  MAXIMUM CHANGE FOR EACH ITERATION:
   MAX. CHANGE        NODE  MAX. CHANGE        NODE  MAX. CHANGE        NODE  MAX. CHANGE        NODE  MAX. CHANGE        NODE
 ------------------------------------------------------------------------------------------------------------------------------------
  -0.34855    ,       1360
     TRANSPORT SOLUTION COMPLETE FOR COMPONENT SPECIES NUMBER    1
     ------------------------------------------------------------

 TRANSPORT SOLUTION COMPLETE FOR ALL SPECIES, SORTING OUTPUT FOR CONCENTRATIONS AND MASS BALANCE
 ----------------------------------------------------------------------------------------------------
     TRANSPORT OUTPUT FOR COMPONENT SPECIES NUMBER    1
     ------------------------------------------------------------
 -------------------------------------------------------------------------------------
 
 SOLVING FOR HEAD 

 Outer-Iteration  Inner-Iteration  Backtracking  Number of        Incoming       Outgoing      Cutoff     Maximum Head Change      Maximum Head Change
     Number           Count           Flag       Backtracks       Residual       Residual      Residual            Value               Location
        1                             0             0          0.109906E-01     0.109906E-01   -1.00000    
        1               12                                                                                       0.273817E-04               1359           GWF-node number
        2                             0             0          0.343414E-07     0.343414E-07   -1.00000    
        2                1                                                                                      -0.633344E-07               2175           GWF-node number
     2 CALLS TO SPARSE MATRIX SOLVER PACKAGE  IN FLOW TIME STEP     297 STRESS PERIOD       2

 TOTAL OF       2OUTER ITERATIONS
  MAXIMUM CHANGE FOR EACH ITERATION:
   MAX. CHANGE        NODE  MAX. CHANGE        NODE  MAX. CHANGE        NODE  MAX. CHANGE        NODE  MAX. CHANGE        NODE
 ------------------------------------------------------------------------------------------------------------------------------------
   0.27382E-04,       1359 -0.63334E-07,       2175

 NO OUTPUT CONTROL FOR STRESS PERIOD        2   TIME STEP      297



          TIME SUMMARY AT END OF TIME STEP       297 IN STRESS PERIOD         2
                    SECONDS     MINUTES      HOURS       DAYS        YEARS
                    -----------------------------------------------------------
   TIME STEP LENGTH  86.400      1.4400     2.40000E-02 1.00000E-03 2.73785E-06
 STRESS PERIOD TIME  25661.      427.68      7.1280     0.29700     8.13142E-04
         TOTAL TIME 1.12061E+05  1867.7      31.128      1.2970     3.55099E-03
1
 ------------------------------------------------------------------------------------------------------------
 
 SOLVING FOR TRANSPORT 

          SEQUENTIAL TRANSPORT ITERATION LOOP NUMBER    1
          -----------------------------------------------

 ------------------------------------------------------------------------------------------------------------------------
     1 CALLS TO SPARSE MATRIX SOLVER PACKAGE IN TRANSPORT TIME STEP     297 STRESS PERIOD       2 SPECIES  1

 TOTAL OF       1OUTER ITERATIONS
  MAXIMUM CHANGE FOR EACH ITERATION:
   MAX. CHANGE        NODE  MAX. CHANGE        NODE  MAX. CHANGE        NODE  MAX. CHANGE        NODE  MAX. CHANGE        NODE
 ------------------------------------------------------------------------------------------------------------------------------------
  -0.43630    ,       1360
     TRANSPORT SOLUTION COMPLETE FOR COMPONENT SPECIES NUMBER    1
     ------------------------------------------------------------

 TRANSPORT SOLUTION COMPLETE FOR ALL SPECIES, SORTING OUTPUT FOR CONCENTRATIONS AND MASS BALANCE
 ----------------------------------------------------------------------------------------------------
     TRANSPORT OUTPUT FOR COMPONENT SPECIES NUMBER    1
     ------------------------------------------------------------
 -------------------------------------------------------------------------------------
 
 SOLVING FOR HEAD 

 Outer-Iteration  Inner-Iteration  Backtracking  Number of        Incoming       Outgoing      Cutoff     Maximum Head Change      Maximum Head Change
     Number           Count           Flag       Backtracks       Residual       Residual      Residual            Value               Location
        1                             0             0          0.226345E-01     0.226345E-01   -1.00000    
        1                9                                                                                       0.380887E-04               1360           GWF-node number
        2                             0             0          0.343337E-05     0.343337E-05   -1.00000    
        2                3                                                                                       0.213797E-05               2340           GWF-node number
     2 CALLS TO SPARSE MATRIX SOLVER PACKAGE  IN FLOW TIME STEP     298 STRESS PERIOD       2

 TOTAL OF       2OUTER ITERATIONS
  MAXIMUM CHANGE FOR EACH ITERATION:
   MAX. CHANGE        NODE  MAX. CHANGE        NODE  MAX. CHANGE        NODE  MAX. CHANGE        NODE  MAX. CHANGE        NODE
 ------------------------------------------------------------------------------------------------------------------------------------
   0.38089E-04,       1360  0.21380E-05,       2340

 NO OUTPUT CONTROL FOR STRESS PERIOD        2   TIME STEP      298



          TIME SUMMARY AT END OF TIME STEP       298 IN STRESS PERIOD         2
                    SECONDS     MINUTES      HOURS       DAYS        YEARS
                    -----------------------------------------------------------
   TIME STEP LENGTH  86.400      1.4400     2.40000E-02 1.00000E-03 2.73785E-06
 STRESS PERIOD TIME  25747.      429.12      7.1520     0.29800     8.15880E-04
         TOTAL TIME 1.12147E+05  1869.1      31.152      1.2980     3.55373E-03
1
 ------------------------------------------------------------------------------------------------------------
 
 SOLVING FOR TRANSPORT 

          SEQUENTIAL TRANSPORT ITERATION LOOP NUMBER    1
          -----------------------------------------------

 ------------------------------------------------------------------------------------------------------------------------
     1 CALLS TO SPARSE MATRIX SOLVER PACKAGE IN TRANSPORT TIME STEP     298 STRESS PERIOD       2 SPECIES  1

 TOTAL OF       1OUTER ITERATIONS
  MAXIMUM CHANGE FOR EACH ITERATION:
   MAX. CHANGE        NODE  MAX. CHANGE        NODE  MAX. CHANGE        NODE  MAX. CHANGE        NODE  MAX. CHANGE        NODE
 ------------------------------------------------------------------------------------------------------------------------------------
  -0.29340    ,       1280
     TRANSPORT SOLUTION COMPLETE FOR COMPONENT SPECIES NUMBER    1
     ------------------------------------------------------------

 TRANSPORT SOLUTION COMPLETE FOR ALL SPECIES, SORTING OUTPUT FOR CONCENTRATIONS AND MASS BALANCE
 ----------------------------------------------------------------------------------------------------
     TRANSPORT OUTPUT FOR COMPONENT SPECIES NUMBER    1
     ------------------------------------------------------------
 -------------------------------------------------------------------------------------
 
 SOLVING FOR HEAD 

 Outer-Iteration  Inner-Iteration  Backtracking  Number of        Incoming       Outgoing      Cutoff     Maximum Head Change      Maximum Head Change
     Number           Count           Flag       Backtracks       Residual       Residual      Residual            Value               Location
        1                             0             0          0.835414E-02     0.835414E-02   -1.00000    
        1               10                                                                                       0.286466E-04               1279           GWF-node number
        2                             0             0          0.635533E-06     0.635533E-06   -1.00000    
        2                2                                                                                      -0.112282E-05               1361           GWF-node number
     2 CALLS TO SPARSE MATRIX SOLVER PACKAGE  IN FLOW TIME STEP     299 STRESS PERIOD       2

 TOTAL OF       2OUTER ITERATIONS
  MAXIMUM CHANGE FOR EACH ITERATION:
   MAX. CHANGE        NODE  MAX. CHANGE        NODE  MAX. CHANGE        NODE  MAX. CHANGE        NODE  MAX. CHANGE        NODE
 ------------------------------------------------------------------------------------------------------------------------------------
   0.28647E-04,       1279 -0.11228E-05,       1361

 NO OUTPUT CONTROL FOR STRESS PERIOD        2   TIME STEP      299



          TIME SUMMARY AT END OF TIME STEP       299 IN STRESS PERIOD         2
                    SECONDS     MINUTES      HOURS       DAYS        YEARS
                    -----------------------------------------------------------
   TIME STEP LENGTH  86.400      1.4400     2.40000E-02 1.00000E-03 2.73785E-06
 STRESS PERIOD TIME  25834.      430.56      7.1760     0.29900     8.18617E-04
         TOTAL TIME 1.12234E+05  1870.6      31.176      1.2990     3.55647E-03
1
 ------------------------------------------------------------------------------------------------------------
 
 SOLVING FOR TRANSPORT 

          SEQUENTIAL TRANSPORT ITERATION LOOP NUMBER    1
          -----------------------------------------------

 ------------------------------------------------------------------------------------------------------------------------
     1 CALLS TO SPARSE MATRIX SOLVER PACKAGE IN TRANSPORT TIME STEP     299 STRESS PERIOD       2 SPECIES  1

 TOTAL OF       1OUTER ITERATIONS
  MAXIMUM CHANGE FOR EACH ITERATION:
   MAX. CHANGE        NODE  MAX. CHANGE        NODE  MAX. CHANGE        NODE  MAX. CHANGE        NODE  MAX. CHANGE        NODE
 ------------------------------------------------------------------------------------------------------------------------------------
  -0.35489    ,       1280
     TRANSPORT SOLUTION COMPLETE FOR COMPONENT SPECIES NUMBER    1
     ------------------------------------------------------------

 TRANSPORT SOLUTION COMPLETE FOR ALL SPECIES, SORTING OUTPUT FOR CONCENTRATIONS AND MASS BALANCE
 ----------------------------------------------------------------------------------------------------
     TRANSPORT OUTPUT FOR COMPONENT SPECIES NUMBER    1
     ------------------------------------------------------------
 -------------------------------------------------------------------------------------
 
 SOLVING FOR HEAD 

 Outer-Iteration  Inner-Iteration  Backtracking  Number of        Incoming       Outgoing      Cutoff     Maximum Head Change      Maximum Head Change
     Number           Count           Flag       Backtracks       Residual       Residual      Residual            Value               Location
        1                             0             0          0.120765E-01     0.120765E-01   -1.00000    
        1                9                                                                                       0.273038E-04               1280           GWF-node number
        2                             0             0          0.106248E-05     0.106248E-05   -1.00000    
        2                1                                                                                       0.839134E-06               1699           GWF-node number
     2 CALLS TO SPARSE MATRIX SOLVER PACKAGE  IN FLOW TIME STEP     300 STRESS PERIOD       2

 TOTAL OF       2OUTER ITERATIONS
  MAXIMUM CHANGE FOR EACH ITERATION:
   MAX. CHANGE        NODE  MAX. CHANGE        NODE  MAX. CHANGE        NODE  MAX. CHANGE        NODE  MAX. CHANGE        NODE
 ------------------------------------------------------------------------------------------------------------------------------------
   0.27304E-04,       1280  0.83913E-06,       1699

 NO OUTPUT CONTROL FOR STRESS PERIOD        2   TIME STEP      300



          TIME SUMMARY AT END OF TIME STEP       300 IN STRESS PERIOD         2
                    SECONDS     MINUTES      HOURS       DAYS        YEARS
                    -----------------------------------------------------------
   TIME STEP LENGTH  86.400      1.4400     2.40000E-02 1.00000E-03 2.73785E-06
 STRESS PERIOD TIME  25920.      432.00      7.2000     0.30000     8.21355E-04
         TOTAL TIME 1.12320E+05  1872.0      31.200      1.3000     3.55921E-03
1
 ------------------------------------------------------------------------------------------------------------
 
 SOLVING FOR TRANSPORT 

          SEQUENTIAL TRANSPORT ITERATION LOOP NUMBER    1
          -----------------------------------------------

 ------------------------------------------------------------------------------------------------------------------------
     1 CALLS TO SPARSE MATRIX SOLVER PACKAGE IN TRANSPORT TIME STEP     300 STRESS PERIOD       2 SPECIES  1

 TOTAL OF       1OUTER ITERATIONS
  MAXIMUM CHANGE FOR EACH ITERATION:
   MAX. CHANGE        NODE  MAX. CHANGE        NODE  MAX. CHANGE        NODE  MAX. CHANGE        NODE  MAX. CHANGE        NODE
 ------------------------------------------------------------------------------------------------------------------------------------
  -0.49324    ,       1280
     TRANSPORT SOLUTION COMPLETE FOR COMPONENT SPECIES NUMBER    1
     ------------------------------------------------------------

 TRANSPORT SOLUTION COMPLETE FOR ALL SPECIES, SORTING OUTPUT FOR CONCENTRATIONS AND MASS BALANCE
 ----------------------------------------------------------------------------------------------------
     TRANSPORT OUTPUT FOR COMPONENT SPECIES NUMBER    1
     ------------------------------------------------------------
 -------------------------------------------------------------------------------------
 
 SOLVING FOR HEAD 

 Outer-Iteration  Inner-Iteration  Backtracking  Number of        Incoming       Outgoing      Cutoff     Maximum Head Change      Maximum Head Change
     Number           Count           Flag       Backtracks       Residual       Residual      Residual            Value               Location
        1                             0             0          0.383816E-01     0.383816E-01   -1.00000    
        1               11                                                                                       0.439102E-04               1280           GWF-node number
        2                             0             0          0.645782E-06     0.645782E-06   -1.00000    
        2                1                                                                                       0.452315E-06                564           GWF-node number
     2 CALLS TO SPARSE MATRIX SOLVER PACKAGE  IN FLOW TIME STEP     301 STRESS PERIOD       2

 TOTAL OF       2OUTER ITERATIONS
  MAXIMUM CHANGE FOR EACH ITERATION:
   MAX. CHANGE        NODE  MAX. CHANGE        NODE  MAX. CHANGE        NODE  MAX. CHANGE        NODE  MAX. CHANGE        NODE
 ------------------------------------------------------------------------------------------------------------------------------------
   0.43910E-04,       1280  0.45231E-06,        564

 NO OUTPUT CONTROL FOR STRESS PERIOD        2   TIME STEP      301



          TIME SUMMARY AT END OF TIME STEP       301 IN STRESS PERIOD         2
                    SECONDS     MINUTES      HOURS       DAYS        YEARS
                    -----------------------------------------------------------
   TIME STEP LENGTH  86.400      1.4400     2.40000E-02 1.00000E-03 2.73785E-06
 STRESS PERIOD TIME  26006.      433.44      7.2240     0.30100     8.24093E-04
         TOTAL TIME 1.12406E+05  1873.4      31.224      1.3010     3.56194E-03
1
 ------------------------------------------------------------------------------------------------------------
 
 SOLVING FOR TRANSPORT 

          SEQUENTIAL TRANSPORT ITERATION LOOP NUMBER    1
          -----------------------------------------------

 ------------------------------------------------------------------------------------------------------------------------
     1 CALLS TO SPARSE MATRIX SOLVER PACKAGE IN TRANSPORT TIME STEP     301 STRESS PERIOD       2 SPECIES  1

 TOTAL OF       1OUTER ITERATIONS
  MAXIMUM CHANGE FOR EACH ITERATION:
   MAX. CHANGE        NODE  MAX. CHANGE        NODE  MAX. CHANGE        NODE  MAX. CHANGE        NODE  MAX. CHANGE        NODE
 ------------------------------------------------------------------------------------------------------------------------------------
  -0.44252    ,       1200
     TRANSPORT SOLUTION COMPLETE FOR COMPONENT SPECIES NUMBER    1
     ------------------------------------------------------------

 TRANSPORT SOLUTION COMPLETE FOR ALL SPECIES, SORTING OUTPUT FOR CONCENTRATIONS AND MASS BALANCE
 ----------------------------------------------------------------------------------------------------
     TRANSPORT OUTPUT FOR COMPONENT SPECIES NUMBER    1
     ------------------------------------------------------------
 -------------------------------------------------------------------------------------
 
 SOLVING FOR HEAD 

 Outer-Iteration  Inner-Iteration  Backtracking  Number of        Incoming       Outgoing      Cutoff     Maximum Head Change      Maximum Head Change
     Number           Count           Flag       Backtracks       Residual       Residual      Residual            Value               Location
        1                             0             0          0.336046E-01     0.336046E-01   -1.00000    
        1               12                                                                                       0.357057E-04               1280           GWF-node number
        2                             0             0          0.315760E-06     0.315760E-06   -1.00000    
        2                1                                                                                      -0.406236E-06               1484           GWF-node number
     2 CALLS TO SPARSE MATRIX SOLVER PACKAGE  IN FLOW TIME STEP     302 STRESS PERIOD       2

 TOTAL OF       2OUTER ITERATIONS
  MAXIMUM CHANGE FOR EACH ITERATION:
   MAX. CHANGE        NODE  MAX. CHANGE        NODE  MAX. CHANGE        NODE  MAX. CHANGE        NODE  MAX. CHANGE        NODE
 ------------------------------------------------------------------------------------------------------------------------------------
   0.35706E-04,       1280 -0.40624E-06,       1484

 NO OUTPUT CONTROL FOR STRESS PERIOD        2   TIME STEP      302



          TIME SUMMARY AT END OF TIME STEP       302 IN STRESS PERIOD         2
                    SECONDS     MINUTES      HOURS       DAYS        YEARS
                    -----------------------------------------------------------
   TIME STEP LENGTH  86.400      1.4400     2.40000E-02 1.00000E-03 2.73785E-06
 STRESS PERIOD TIME  26093.      434.88      7.2480     0.30200     8.26831E-04
         TOTAL TIME 1.12493E+05  1874.9      31.248      1.3020     3.56468E-03
1
 ------------------------------------------------------------------------------------------------------------
 
 SOLVING FOR TRANSPORT 

          SEQUENTIAL TRANSPORT ITERATION LOOP NUMBER    1
          -----------------------------------------------

 ------------------------------------------------------------------------------------------------------------------------
     1 CALLS TO SPARSE MATRIX SOLVER PACKAGE IN TRANSPORT TIME STEP     302 STRESS PERIOD       2 SPECIES  1

 TOTAL OF       1OUTER ITERATIONS
  MAXIMUM CHANGE FOR EACH ITERATION:
   MAX. CHANGE        NODE  MAX. CHANGE        NODE  MAX. CHANGE        NODE  MAX. CHANGE        NODE  MAX. CHANGE        NODE
 ------------------------------------------------------------------------------------------------------------------------------------
  -0.49642    ,       1200
     TRANSPORT SOLUTION COMPLETE FOR COMPONENT SPECIES NUMBER    1
     ------------------------------------------------------------

 TRANSPORT SOLUTION COMPLETE FOR ALL SPECIES, SORTING OUTPUT FOR CONCENTRATIONS AND MASS BALANCE
 ----------------------------------------------------------------------------------------------------
     TRANSPORT OUTPUT FOR COMPONENT SPECIES NUMBER    1
     ------------------------------------------------------------
 -------------------------------------------------------------------------------------
 
 SOLVING FOR HEAD 

 Outer-Iteration  Inner-Iteration  Backtracking  Number of        Incoming       Outgoing      Cutoff     Maximum Head Change      Maximum Head Change
     Number           Count           Flag       Backtracks       Residual       Residual      Residual            Value               Location
        1                             0             0          0.331848E-01     0.331848E-01   -1.00000    
        1               13                                                                                       0.397282E-04               1200           GWF-node number
        2                             0             0          0.101618E-06     0.101618E-06   -1.00000    
        2                1                                                                                      -0.403166E-06               1718           GWF-node number
     2 CALLS TO SPARSE MATRIX SOLVER PACKAGE  IN FLOW TIME STEP     303 STRESS PERIOD       2

 TOTAL OF       2OUTER ITERATIONS
  MAXIMUM CHANGE FOR EACH ITERATION:
   MAX. CHANGE        NODE  MAX. CHANGE        NODE  MAX. CHANGE        NODE  MAX. CHANGE        NODE  MAX. CHANGE        NODE
 ------------------------------------------------------------------------------------------------------------------------------------
   0.39728E-04,       1200 -0.40317E-06,       1718

 NO OUTPUT CONTROL FOR STRESS PERIOD        2   TIME STEP      303



          TIME SUMMARY AT END OF TIME STEP       303 IN STRESS PERIOD         2
                    SECONDS     MINUTES      HOURS       DAYS        YEARS
                    -----------------------------------------------------------
   TIME STEP LENGTH  86.400      1.4400     2.40000E-02 1.00000E-03 2.73785E-06
 STRESS PERIOD TIME  26179.      436.32      7.2720     0.30300     8.29569E-04
         TOTAL TIME 1.12579E+05  1876.3      31.272      1.3030     3.56742E-03
1
 ------------------------------------------------------------------------------------------------------------
 
 SOLVING FOR TRANSPORT 

          SEQUENTIAL TRANSPORT ITERATION LOOP NUMBER    1
          -----------------------------------------------

 ------------------------------------------------------------------------------------------------------------------------
     1 CALLS TO SPARSE MATRIX SOLVER PACKAGE IN TRANSPORT TIME STEP     303 STRESS PERIOD       2 SPECIES  1

 TOTAL OF       1OUTER ITERATIONS
  MAXIMUM CHANGE FOR EACH ITERATION:
   MAX. CHANGE        NODE  MAX. CHANGE        NODE  MAX. CHANGE        NODE  MAX. CHANGE        NODE  MAX. CHANGE        NODE
 ------------------------------------------------------------------------------------------------------------------------------------
  -0.61775    ,       1200
     TRANSPORT SOLUTION COMPLETE FOR COMPONENT SPECIES NUMBER    1
     ------------------------------------------------------------

 TRANSPORT SOLUTION COMPLETE FOR ALL SPECIES, SORTING OUTPUT FOR CONCENTRATIONS AND MASS BALANCE
 ----------------------------------------------------------------------------------------------------
     TRANSPORT OUTPUT FOR COMPONENT SPECIES NUMBER    1
     ------------------------------------------------------------
 -------------------------------------------------------------------------------------
 
 SOLVING FOR HEAD 

 Outer-Iteration  Inner-Iteration  Backtracking  Number of        Incoming       Outgoing      Cutoff     Maximum Head Change      Maximum Head Change
     Number           Count           Flag       Backtracks       Residual       Residual      Residual            Value               Location
        1                             0             0          0.925672E-01     0.925672E-01   -1.00000    
        1               11                                                                                       0.598701E-04               1200           GWF-node number
        2                             0             0          0.258636E-05     0.258636E-05   -1.00000    
        2                1                                                                                       0.839339E-06               1470           GWF-node number
     2 CALLS TO SPARSE MATRIX SOLVER PACKAGE  IN FLOW TIME STEP     304 STRESS PERIOD       2

 TOTAL OF       2OUTER ITERATIONS
  MAXIMUM CHANGE FOR EACH ITERATION:
   MAX. CHANGE        NODE  MAX. CHANGE        NODE  MAX. CHANGE        NODE  MAX. CHANGE        NODE  MAX. CHANGE        NODE
 ------------------------------------------------------------------------------------------------------------------------------------
   0.59870E-04,       1200  0.83934E-06,       1470

 NO OUTPUT CONTROL FOR STRESS PERIOD        2   TIME STEP      304



          TIME SUMMARY AT END OF TIME STEP       304 IN STRESS PERIOD         2
                    SECONDS     MINUTES      HOURS       DAYS        YEARS
                    -----------------------------------------------------------
   TIME STEP LENGTH  86.400      1.4400     2.40000E-02 1.00000E-03 2.73785E-06
 STRESS PERIOD TIME  26266.      437.76      7.2960     0.30400     8.32307E-04
         TOTAL TIME 1.12666E+05  1877.8      31.296      1.3040     3.57016E-03
1
 ------------------------------------------------------------------------------------------------------------
 
 SOLVING FOR TRANSPORT 

          SEQUENTIAL TRANSPORT ITERATION LOOP NUMBER    1
          -----------------------------------------------

 ------------------------------------------------------------------------------------------------------------------------
     1 CALLS TO SPARSE MATRIX SOLVER PACKAGE IN TRANSPORT TIME STEP     304 STRESS PERIOD       2 SPECIES  1

 TOTAL OF       1OUTER ITERATIONS
  MAXIMUM CHANGE FOR EACH ITERATION:
   MAX. CHANGE        NODE  MAX. CHANGE        NODE  MAX. CHANGE        NODE  MAX. CHANGE        NODE  MAX. CHANGE        NODE
 ------------------------------------------------------------------------------------------------------------------------------------
   0.36184    ,       1440
     TRANSPORT SOLUTION COMPLETE FOR COMPONENT SPECIES NUMBER    1
     ------------------------------------------------------------

 TRANSPORT SOLUTION COMPLETE FOR ALL SPECIES, SORTING OUTPUT FOR CONCENTRATIONS AND MASS BALANCE
 ----------------------------------------------------------------------------------------------------
     TRANSPORT OUTPUT FOR COMPONENT SPECIES NUMBER    1
     ------------------------------------------------------------
 -------------------------------------------------------------------------------------
 
 SOLVING FOR HEAD 

 Outer-Iteration  Inner-Iteration  Backtracking  Number of        Incoming       Outgoing      Cutoff     Maximum Head Change      Maximum Head Change
     Number           Count           Flag       Backtracks       Residual       Residual      Residual            Value               Location
        1                             0             0          0.139762E-01     0.139762E-01   -1.00000    
        1               11                                                                                      -0.268631E-04               1440           GWF-node number
        2                             0             0          0.390381E-06     0.390381E-06   -1.00000    
        2                1                                                                                      -0.922531E-06               3121           GWF-node number
     2 CALLS TO SPARSE MATRIX SOLVER PACKAGE  IN FLOW TIME STEP     305 STRESS PERIOD       2

 TOTAL OF       2OUTER ITERATIONS
  MAXIMUM CHANGE FOR EACH ITERATION:
   MAX. CHANGE        NODE  MAX. CHANGE        NODE  MAX. CHANGE        NODE  MAX. CHANGE        NODE  MAX. CHANGE        NODE
 ------------------------------------------------------------------------------------------------------------------------------------
  -0.26863E-04,       1440 -0.92253E-06,       3121

 NO OUTPUT CONTROL FOR STRESS PERIOD        2   TIME STEP      305



          TIME SUMMARY AT END OF TIME STEP       305 IN STRESS PERIOD         2
                    SECONDS     MINUTES      HOURS       DAYS        YEARS
                    -----------------------------------------------------------
   TIME STEP LENGTH  86.400      1.4400     2.40000E-02 1.00000E-03 2.73785E-06
 STRESS PERIOD TIME  26352.      439.20      7.3200     0.30500     8.35044E-04
         TOTAL TIME 1.12752E+05  1879.2      31.320      1.3050     3.57290E-03
1
 ------------------------------------------------------------------------------------------------------------
 
 SOLVING FOR TRANSPORT 

          SEQUENTIAL TRANSPORT ITERATION LOOP NUMBER    1
          -----------------------------------------------

 ------------------------------------------------------------------------------------------------------------------------
     1 CALLS TO SPARSE MATRIX SOLVER PACKAGE IN TRANSPORT TIME STEP     305 STRESS PERIOD       2 SPECIES  1

 TOTAL OF       1OUTER ITERATIONS
  MAXIMUM CHANGE FOR EACH ITERATION:
   MAX. CHANGE        NODE  MAX. CHANGE        NODE  MAX. CHANGE        NODE  MAX. CHANGE        NODE  MAX. CHANGE        NODE
 ------------------------------------------------------------------------------------------------------------------------------------
   0.39061    ,       1440
     TRANSPORT SOLUTION COMPLETE FOR COMPONENT SPECIES NUMBER    1
     ------------------------------------------------------------

 TRANSPORT SOLUTION COMPLETE FOR ALL SPECIES, SORTING OUTPUT FOR CONCENTRATIONS AND MASS BALANCE
 ----------------------------------------------------------------------------------------------------
     TRANSPORT OUTPUT FOR COMPONENT SPECIES NUMBER    1
     ------------------------------------------------------------
 -------------------------------------------------------------------------------------
 
 SOLVING FOR HEAD 

 Outer-Iteration  Inner-Iteration  Backtracking  Number of        Incoming       Outgoing      Cutoff     Maximum Head Change      Maximum Head Change
     Number           Count           Flag       Backtracks       Residual       Residual      Residual            Value               Location
        1                             0             0          0.927592E-02     0.927592E-02   -1.00000    
        1               12                                                                                      -0.266354E-04               1440           GWF-node number
        2                             0             0          0.745185E-07     0.745185E-07   -1.00000    
        2                1                                                                                      -0.154937E-06               2721           GWF-node number
     2 CALLS TO SPARSE MATRIX SOLVER PACKAGE  IN FLOW TIME STEP     306 STRESS PERIOD       2

 TOTAL OF       2OUTER ITERATIONS
  MAXIMUM CHANGE FOR EACH ITERATION:
   MAX. CHANGE        NODE  MAX. CHANGE        NODE  MAX. CHANGE        NODE  MAX. CHANGE        NODE  MAX. CHANGE        NODE
 ------------------------------------------------------------------------------------------------------------------------------------
  -0.26635E-04,       1440 -0.15494E-06,       2721

 NO OUTPUT CONTROL FOR STRESS PERIOD        2   TIME STEP      306



          TIME SUMMARY AT END OF TIME STEP       306 IN STRESS PERIOD         2
                    SECONDS     MINUTES      HOURS       DAYS        YEARS
                    -----------------------------------------------------------
   TIME STEP LENGTH  86.400      1.4400     2.40000E-02 1.00000E-03 2.73785E-06
 STRESS PERIOD TIME  26438.      440.64      7.3440     0.30600     8.37782E-04
         TOTAL TIME 1.12838E+05  1880.6      31.344      1.3060     3.57563E-03
1
 ------------------------------------------------------------------------------------------------------------
 
 SOLVING FOR TRANSPORT 

          SEQUENTIAL TRANSPORT ITERATION LOOP NUMBER    1
          -----------------------------------------------

 ------------------------------------------------------------------------------------------------------------------------
     1 CALLS TO SPARSE MATRIX SOLVER PACKAGE IN TRANSPORT TIME STEP     306 STRESS PERIOD       2 SPECIES  1

 TOTAL OF       1OUTER ITERATIONS
  MAXIMUM CHANGE FOR EACH ITERATION:
   MAX. CHANGE        NODE  MAX. CHANGE        NODE  MAX. CHANGE        NODE  MAX. CHANGE        NODE  MAX. CHANGE        NODE
 ------------------------------------------------------------------------------------------------------------------------------------
   0.44725    ,       1360
     TRANSPORT SOLUTION COMPLETE FOR COMPONENT SPECIES NUMBER    1
     ------------------------------------------------------------

 TRANSPORT SOLUTION COMPLETE FOR ALL SPECIES, SORTING OUTPUT FOR CONCENTRATIONS AND MASS BALANCE
 ----------------------------------------------------------------------------------------------------
     TRANSPORT OUTPUT FOR COMPONENT SPECIES NUMBER    1
     ------------------------------------------------------------
 -------------------------------------------------------------------------------------
 
 SOLVING FOR HEAD 

 Outer-Iteration  Inner-Iteration  Backtracking  Number of        Incoming       Outgoing      Cutoff     Maximum Head Change      Maximum Head Change
     Number           Count           Flag       Backtracks       Residual       Residual      Residual            Value               Location
        1                             0             0          0.956973E-02     0.956973E-02   -1.00000    
        1               12                                                                                      -0.255910E-04               1360           GWF-node number
        2                             0             0          0.523767E-07     0.523767E-07   -1.00000    
        2                1                                                                                       0.401946E-06               3125           GWF-node number
     2 CALLS TO SPARSE MATRIX SOLVER PACKAGE  IN FLOW TIME STEP     307 STRESS PERIOD       2

 TOTAL OF       2OUTER ITERATIONS
  MAXIMUM CHANGE FOR EACH ITERATION:
   MAX. CHANGE        NODE  MAX. CHANGE        NODE  MAX. CHANGE        NODE  MAX. CHANGE        NODE  MAX. CHANGE        NODE
 ------------------------------------------------------------------------------------------------------------------------------------
  -0.25591E-04,       1360  0.40195E-06,       3125

 NO OUTPUT CONTROL FOR STRESS PERIOD        2   TIME STEP      307



          TIME SUMMARY AT END OF TIME STEP       307 IN STRESS PERIOD         2
                    SECONDS     MINUTES      HOURS       DAYS        YEARS
                    -----------------------------------------------------------
   TIME STEP LENGTH  86.400      1.4400     2.40000E-02 1.00000E-03 2.73785E-06
 STRESS PERIOD TIME  26525.      442.08      7.3680     0.30700     8.40520E-04
         TOTAL TIME 1.12925E+05  1882.1      31.368      1.3070     3.57837E-03
1
 ------------------------------------------------------------------------------------------------------------
 
 SOLVING FOR TRANSPORT 

          SEQUENTIAL TRANSPORT ITERATION LOOP NUMBER    1
          -----------------------------------------------

 ------------------------------------------------------------------------------------------------------------------------
     1 CALLS TO SPARSE MATRIX SOLVER PACKAGE IN TRANSPORT TIME STEP     307 STRESS PERIOD       2 SPECIES  1

 TOTAL OF       1OUTER ITERATIONS
  MAXIMUM CHANGE FOR EACH ITERATION:
   MAX. CHANGE        NODE  MAX. CHANGE        NODE  MAX. CHANGE        NODE  MAX. CHANGE        NODE  MAX. CHANGE        NODE
 ------------------------------------------------------------------------------------------------------------------------------------
   0.42024    ,       1360
     TRANSPORT SOLUTION COMPLETE FOR COMPONENT SPECIES NUMBER    1
     ------------------------------------------------------------

 TRANSPORT SOLUTION COMPLETE FOR ALL SPECIES, SORTING OUTPUT FOR CONCENTRATIONS AND MASS BALANCE
 ----------------------------------------------------------------------------------------------------
     TRANSPORT OUTPUT FOR COMPONENT SPECIES NUMBER    1
     ------------------------------------------------------------
 -------------------------------------------------------------------------------------
 
 SOLVING FOR HEAD 

 Outer-Iteration  Inner-Iteration  Backtracking  Number of        Incoming       Outgoing      Cutoff     Maximum Head Change      Maximum Head Change
     Number           Count           Flag       Backtracks       Residual       Residual      Residual            Value               Location
        1                             0             0          0.910986E-02     0.910986E-02   -1.00000    
        1               11                                                                                      -0.248352E-04               1360           GWF-node number
        2                             0             0          0.167109E-06     0.167109E-06   -1.00000    
        2                1                                                                                       0.859458E-06               1535           GWF-node number
     2 CALLS TO SPARSE MATRIX SOLVER PACKAGE  IN FLOW TIME STEP     308 STRESS PERIOD       2

 TOTAL OF       2OUTER ITERATIONS
  MAXIMUM CHANGE FOR EACH ITERATION:
   MAX. CHANGE        NODE  MAX. CHANGE        NODE  MAX. CHANGE        NODE  MAX. CHANGE        NODE  MAX. CHANGE        NODE
 ------------------------------------------------------------------------------------------------------------------------------------
  -0.24835E-04,       1360  0.85946E-06,       1535

 NO OUTPUT CONTROL FOR STRESS PERIOD        2   TIME STEP      308



          TIME SUMMARY AT END OF TIME STEP       308 IN STRESS PERIOD         2
                    SECONDS     MINUTES      HOURS       DAYS        YEARS
                    -----------------------------------------------------------
   TIME STEP LENGTH  86.400      1.4400     2.40000E-02 1.00000E-03 2.73785E-06
 STRESS PERIOD TIME  26611.      443.52      7.3920     0.30800     8.43258E-04
         TOTAL TIME 1.13011E+05  1883.5      31.392      1.3080     3.58111E-03
1
 ------------------------------------------------------------------------------------------------------------
 
 SOLVING FOR TRANSPORT 

          SEQUENTIAL TRANSPORT ITERATION LOOP NUMBER    1
          -----------------------------------------------

 ------------------------------------------------------------------------------------------------------------------------
     1 CALLS TO SPARSE MATRIX SOLVER PACKAGE IN TRANSPORT TIME STEP     308 STRESS PERIOD       2 SPECIES  1

 TOTAL OF       1OUTER ITERATIONS
  MAXIMUM CHANGE FOR EACH ITERATION:
   MAX. CHANGE        NODE  MAX. CHANGE        NODE  MAX. CHANGE        NODE  MAX. CHANGE        NODE  MAX. CHANGE        NODE
 ------------------------------------------------------------------------------------------------------------------------------------
   0.40169    ,       1280
     TRANSPORT SOLUTION COMPLETE FOR COMPONENT SPECIES NUMBER    1
     ------------------------------------------------------------

 TRANSPORT SOLUTION COMPLETE FOR ALL SPECIES, SORTING OUTPUT FOR CONCENTRATIONS AND MASS BALANCE
 ----------------------------------------------------------------------------------------------------
     TRANSPORT OUTPUT FOR COMPONENT SPECIES NUMBER    1
     ------------------------------------------------------------
 -------------------------------------------------------------------------------------
 
 SOLVING FOR HEAD 

 Outer-Iteration  Inner-Iteration  Backtracking  Number of        Incoming       Outgoing      Cutoff     Maximum Head Change      Maximum Head Change
     Number           Count           Flag       Backtracks       Residual       Residual      Residual            Value               Location
        1                             0             0          0.709965E-02     0.709965E-02   -1.00000    
        1               11                                                                                       0.198782E-04                870           GWF-node number
        2                             0             0          0.492774E-06     0.492774E-06   -1.00000    
        2                1                                                                                      -0.379542E-06               2854           GWF-node number
     2 CALLS TO SPARSE MATRIX SOLVER PACKAGE  IN FLOW TIME STEP     309 STRESS PERIOD       2

 TOTAL OF       2OUTER ITERATIONS
  MAXIMUM CHANGE FOR EACH ITERATION:
   MAX. CHANGE        NODE  MAX. CHANGE        NODE  MAX. CHANGE        NODE  MAX. CHANGE        NODE  MAX. CHANGE        NODE
 ------------------------------------------------------------------------------------------------------------------------------------
   0.19878E-04,        870 -0.37954E-06,       2854

 NO OUTPUT CONTROL FOR STRESS PERIOD        2   TIME STEP      309



          TIME SUMMARY AT END OF TIME STEP       309 IN STRESS PERIOD         2
                    SECONDS     MINUTES      HOURS       DAYS        YEARS
                    -----------------------------------------------------------
   TIME STEP LENGTH  86.400      1.4400     2.40000E-02 1.00000E-03 2.73785E-06
 STRESS PERIOD TIME  26698.      444.96      7.4160     0.30900     8.45996E-04
         TOTAL TIME 1.13098E+05  1885.0      31.416      1.3090     3.58385E-03
1
 ------------------------------------------------------------------------------------------------------------
 
 SOLVING FOR TRANSPORT 

          SEQUENTIAL TRANSPORT ITERATION LOOP NUMBER    1
          -----------------------------------------------

 ------------------------------------------------------------------------------------------------------------------------
     1 CALLS TO SPARSE MATRIX SOLVER PACKAGE IN TRANSPORT TIME STEP     309 STRESS PERIOD       2 SPECIES  1

 TOTAL OF       1OUTER ITERATIONS
  MAXIMUM CHANGE FOR EACH ITERATION:
   MAX. CHANGE        NODE  MAX. CHANGE        NODE  MAX. CHANGE        NODE  MAX. CHANGE        NODE  MAX. CHANGE        NODE
 ------------------------------------------------------------------------------------------------------------------------------------
   0.38423    ,       1280
     TRANSPORT SOLUTION COMPLETE FOR COMPONENT SPECIES NUMBER    1
     ------------------------------------------------------------

 TRANSPORT SOLUTION COMPLETE FOR ALL SPECIES, SORTING OUTPUT FOR CONCENTRATIONS AND MASS BALANCE
 ----------------------------------------------------------------------------------------------------
     TRANSPORT OUTPUT FOR COMPONENT SPECIES NUMBER    1
     ------------------------------------------------------------
 -------------------------------------------------------------------------------------
 
 SOLVING FOR HEAD 

 Outer-Iteration  Inner-Iteration  Backtracking  Number of        Incoming       Outgoing      Cutoff     Maximum Head Change      Maximum Head Change
     Number           Count           Flag       Backtracks       Residual       Residual      Residual            Value               Location
        1                             0             0          0.828075E-02     0.828075E-02   -1.00000    
        1               12                                                                                      -0.216116E-04               1280           GWF-node number
        2                             0             0          0.449245E-07     0.449245E-07   -1.00000    
        2                1                                                                                      -0.328440E-06               2641           GWF-node number
     2 CALLS TO SPARSE MATRIX SOLVER PACKAGE  IN FLOW TIME STEP     310 STRESS PERIOD       2

 TOTAL OF       2OUTER ITERATIONS
  MAXIMUM CHANGE FOR EACH ITERATION:
   MAX. CHANGE        NODE  MAX. CHANGE        NODE  MAX. CHANGE        NODE  MAX. CHANGE        NODE  MAX. CHANGE        NODE
 ------------------------------------------------------------------------------------------------------------------------------------
  -0.21612E-04,       1280 -0.32844E-06,       2641

 NO OUTPUT CONTROL FOR STRESS PERIOD        2   TIME STEP      310



          TIME SUMMARY AT END OF TIME STEP       310 IN STRESS PERIOD         2
                    SECONDS     MINUTES      HOURS       DAYS        YEARS
                    -----------------------------------------------------------
   TIME STEP LENGTH  86.400      1.4400     2.40000E-02 1.00000E-03 2.73785E-06
 STRESS PERIOD TIME  26784.      446.40      7.4400     0.31000     8.48734E-04
         TOTAL TIME 1.13184E+05  1886.4      31.440      1.3100     3.58658E-03
1
 ------------------------------------------------------------------------------------------------------------
 
 SOLVING FOR TRANSPORT 

          SEQUENTIAL TRANSPORT ITERATION LOOP NUMBER    1
          -----------------------------------------------

 ------------------------------------------------------------------------------------------------------------------------
     1 CALLS TO SPARSE MATRIX SOLVER PACKAGE IN TRANSPORT TIME STEP     310 STRESS PERIOD       2 SPECIES  1

 TOTAL OF       1OUTER ITERATIONS
  MAXIMUM CHANGE FOR EACH ITERATION:
   MAX. CHANGE        NODE  MAX. CHANGE        NODE  MAX. CHANGE        NODE  MAX. CHANGE        NODE  MAX. CHANGE        NODE
 ------------------------------------------------------------------------------------------------------------------------------------
   0.32629    ,       1040
     TRANSPORT SOLUTION COMPLETE FOR COMPONENT SPECIES NUMBER    1
     ------------------------------------------------------------

 TRANSPORT SOLUTION COMPLETE FOR ALL SPECIES, SORTING OUTPUT FOR CONCENTRATIONS AND MASS BALANCE
 ----------------------------------------------------------------------------------------------------
     TRANSPORT OUTPUT FOR COMPONENT SPECIES NUMBER    1
     ------------------------------------------------------------
 -------------------------------------------------------------------------------------
 
 SOLVING FOR HEAD 

 Outer-Iteration  Inner-Iteration  Backtracking  Number of        Incoming       Outgoing      Cutoff     Maximum Head Change      Maximum Head Change
     Number           Count           Flag       Backtracks       Residual       Residual      Residual            Value               Location
        1                             0             0          0.669959E-02     0.669959E-02   -1.00000    
        1                9                                                                                      -0.185596E-04               1280           GWF-node number
        2                             0             0          0.232049E-05     0.232049E-05   -1.00000    
        2                2                                                                                       0.942299E-06                501           GWF-node number
     2 CALLS TO SPARSE MATRIX SOLVER PACKAGE  IN FLOW TIME STEP     311 STRESS PERIOD       2

 TOTAL OF       2OUTER ITERATIONS
  MAXIMUM CHANGE FOR EACH ITERATION:
   MAX. CHANGE        NODE  MAX. CHANGE        NODE  MAX. CHANGE        NODE  MAX. CHANGE        NODE  MAX. CHANGE        NODE
 ------------------------------------------------------------------------------------------------------------------------------------
  -0.18560E-04,       1280  0.94230E-06,        501

 NO OUTPUT CONTROL FOR STRESS PERIOD        2   TIME STEP      311



          TIME SUMMARY AT END OF TIME STEP       311 IN STRESS PERIOD         2
                    SECONDS     MINUTES      HOURS       DAYS        YEARS
                    -----------------------------------------------------------
   TIME STEP LENGTH  86.400      1.4400     2.40000E-02 1.00000E-03 2.73785E-06
 STRESS PERIOD TIME  26870.      447.84      7.4640     0.31100     8.51472E-04
         TOTAL TIME 1.13270E+05  1887.8      31.464      1.3110     3.58932E-03
1
 ------------------------------------------------------------------------------------------------------------
 
 SOLVING FOR TRANSPORT 

          SEQUENTIAL TRANSPORT ITERATION LOOP NUMBER    1
          -----------------------------------------------

 ------------------------------------------------------------------------------------------------------------------------
     1 CALLS TO SPARSE MATRIX SOLVER PACKAGE IN TRANSPORT TIME STEP     311 STRESS PERIOD       2 SPECIES  1

 TOTAL OF       1OUTER ITERATIONS
  MAXIMUM CHANGE FOR EACH ITERATION:
   MAX. CHANGE        NODE  MAX. CHANGE        NODE  MAX. CHANGE        NODE  MAX. CHANGE        NODE  MAX. CHANGE        NODE
 ------------------------------------------------------------------------------------------------------------------------------------
   0.27116    ,        960
     TRANSPORT SOLUTION COMPLETE FOR COMPONENT SPECIES NUMBER    1
     ------------------------------------------------------------

 TRANSPORT SOLUTION COMPLETE FOR ALL SPECIES, SORTING OUTPUT FOR CONCENTRATIONS AND MASS BALANCE
 ----------------------------------------------------------------------------------------------------
     TRANSPORT OUTPUT FOR COMPONENT SPECIES NUMBER    1
     ------------------------------------------------------------
 -------------------------------------------------------------------------------------
 
 SOLVING FOR HEAD 

 Outer-Iteration  Inner-Iteration  Backtracking  Number of        Incoming       Outgoing      Cutoff     Maximum Head Change      Maximum Head Change
     Number           Count           Flag       Backtracks       Residual       Residual      Residual            Value               Location
        1                             0             0          0.434419E-02     0.434419E-02   -1.00000    
        1                9                                                                                       0.158812E-04               1517           GWF-node number
        2                             0             0          0.873250E-05     0.873250E-05   -1.00000    
        2                3                                                                                      -0.603729E-06                 76           GWF-node number
     2 CALLS TO SPARSE MATRIX SOLVER PACKAGE  IN FLOW TIME STEP     312 STRESS PERIOD       2

 TOTAL OF       2OUTER ITERATIONS
  MAXIMUM CHANGE FOR EACH ITERATION:
   MAX. CHANGE        NODE  MAX. CHANGE        NODE  MAX. CHANGE        NODE  MAX. CHANGE        NODE  MAX. CHANGE        NODE
 ------------------------------------------------------------------------------------------------------------------------------------
   0.15881E-04,       1517 -0.60373E-06,         76

 NO OUTPUT CONTROL FOR STRESS PERIOD        2   TIME STEP      312



          TIME SUMMARY AT END OF TIME STEP       312 IN STRESS PERIOD         2
                    SECONDS     MINUTES      HOURS       DAYS        YEARS
                    -----------------------------------------------------------
   TIME STEP LENGTH  86.400      1.4400     2.40000E-02 1.00000E-03 2.73785E-06
 STRESS PERIOD TIME  26957.      449.28      7.4880     0.31200     8.54209E-04
         TOTAL TIME 1.13357E+05  1889.3      31.488      1.3120     3.59206E-03
1
 ------------------------------------------------------------------------------------------------------------
 
 SOLVING FOR TRANSPORT 

          SEQUENTIAL TRANSPORT ITERATION LOOP NUMBER    1
          -----------------------------------------------

 ------------------------------------------------------------------------------------------------------------------------
     1 CALLS TO SPARSE MATRIX SOLVER PACKAGE IN TRANSPORT TIME STEP     312 STRESS PERIOD       2 SPECIES  1

 TOTAL OF       1OUTER ITERATIONS
  MAXIMUM CHANGE FOR EACH ITERATION:
   MAX. CHANGE        NODE  MAX. CHANGE        NODE  MAX. CHANGE        NODE  MAX. CHANGE        NODE  MAX. CHANGE        NODE
 ------------------------------------------------------------------------------------------------------------------------------------
   0.21165    ,        880
     TRANSPORT SOLUTION COMPLETE FOR COMPONENT SPECIES NUMBER    1
     ------------------------------------------------------------

 TRANSPORT SOLUTION COMPLETE FOR ALL SPECIES, SORTING OUTPUT FOR CONCENTRATIONS AND MASS BALANCE
 ----------------------------------------------------------------------------------------------------
     TRANSPORT OUTPUT FOR COMPONENT SPECIES NUMBER    1
     ------------------------------------------------------------
 -------------------------------------------------------------------------------------
 
 SOLVING FOR HEAD 

 Outer-Iteration  Inner-Iteration  Backtracking  Number of        Incoming       Outgoing      Cutoff     Maximum Head Change      Maximum Head Change
     Number           Count           Flag       Backtracks       Residual       Residual      Residual            Value               Location
        1                             0             0          0.279786E-02     0.279786E-02   -1.00000    
        1               10                                                                                       0.190592E-04               1438           GWF-node number
        2                             0             0          0.112020E-05     0.112020E-05   -1.00000    
        2                1                                                                                      -0.628832E-06               1806           GWF-node number
     2 CALLS TO SPARSE MATRIX SOLVER PACKAGE  IN FLOW TIME STEP     313 STRESS PERIOD       2

 TOTAL OF       2OUTER ITERATIONS
  MAXIMUM CHANGE FOR EACH ITERATION:
   MAX. CHANGE        NODE  MAX. CHANGE        NODE  MAX. CHANGE        NODE  MAX. CHANGE        NODE  MAX. CHANGE        NODE
 ------------------------------------------------------------------------------------------------------------------------------------
   0.19059E-04,       1438 -0.62883E-06,       1806

 NO OUTPUT CONTROL FOR STRESS PERIOD        2   TIME STEP      313



          TIME SUMMARY AT END OF TIME STEP       313 IN STRESS PERIOD         2
                    SECONDS     MINUTES      HOURS       DAYS        YEARS
                    -----------------------------------------------------------
   TIME STEP LENGTH  86.400      1.4400     2.40000E-02 1.00000E-03 2.73785E-06
 STRESS PERIOD TIME  27043.      450.72      7.5120     0.31300     8.56947E-04
         TOTAL TIME 1.13443E+05  1890.7      31.512      1.3130     3.59480E-03
1
 ------------------------------------------------------------------------------------------------------------
 
 SOLVING FOR TRANSPORT 

          SEQUENTIAL TRANSPORT ITERATION LOOP NUMBER    1
          -----------------------------------------------

 ------------------------------------------------------------------------------------------------------------------------
     1 CALLS TO SPARSE MATRIX SOLVER PACKAGE IN TRANSPORT TIME STEP     313 STRESS PERIOD       2 SPECIES  1

 TOTAL OF       1OUTER ITERATIONS
  MAXIMUM CHANGE FOR EACH ITERATION:
   MAX. CHANGE        NODE  MAX. CHANGE        NODE  MAX. CHANGE        NODE  MAX. CHANGE        NODE  MAX. CHANGE        NODE
 ------------------------------------------------------------------------------------------------------------------------------------
   0.16078    ,        880
     TRANSPORT SOLUTION COMPLETE FOR COMPONENT SPECIES NUMBER    1
     ------------------------------------------------------------

 TRANSPORT SOLUTION COMPLETE FOR ALL SPECIES, SORTING OUTPUT FOR CONCENTRATIONS AND MASS BALANCE
 ----------------------------------------------------------------------------------------------------
     TRANSPORT OUTPUT FOR COMPONENT SPECIES NUMBER    1
     ------------------------------------------------------------
 -------------------------------------------------------------------------------------
 
 SOLVING FOR HEAD 

 Outer-Iteration  Inner-Iteration  Backtracking  Number of        Incoming       Outgoing      Cutoff     Maximum Head Change      Maximum Head Change
     Number           Count           Flag       Backtracks       Residual       Residual      Residual            Value               Location
        1                             0             0          0.383853E-02     0.383853E-02   -1.00000    
        1               10                                                                                       0.177622E-04               1517           GWF-node number
        2                             0             0          0.281202E-06     0.281202E-06   -1.00000    
        2                1                                                                                       0.478249E-06               1613           GWF-node number
     2 CALLS TO SPARSE MATRIX SOLVER PACKAGE  IN FLOW TIME STEP     314 STRESS PERIOD       2

 TOTAL OF       2OUTER ITERATIONS
  MAXIMUM CHANGE FOR EACH ITERATION:
   MAX. CHANGE        NODE  MAX. CHANGE        NODE  MAX. CHANGE        NODE  MAX. CHANGE        NODE  MAX. CHANGE        NODE
 ------------------------------------------------------------------------------------------------------------------------------------
   0.17762E-04,       1517  0.47825E-06,       1613

 NO OUTPUT CONTROL FOR STRESS PERIOD        2   TIME STEP      314



          TIME SUMMARY AT END OF TIME STEP       314 IN STRESS PERIOD         2
                    SECONDS     MINUTES      HOURS       DAYS        YEARS
                    -----------------------------------------------------------
   TIME STEP LENGTH  86.400      1.4400     2.40000E-02 1.00000E-03 2.73785E-06
 STRESS PERIOD TIME  27130.      452.16      7.5360     0.31400     8.59685E-04
         TOTAL TIME 1.13530E+05  1892.2      31.536      1.3140     3.59754E-03
1
 ------------------------------------------------------------------------------------------------------------
 
 SOLVING FOR TRANSPORT 

          SEQUENTIAL TRANSPORT ITERATION LOOP NUMBER    1
          -----------------------------------------------

 ------------------------------------------------------------------------------------------------------------------------
     1 CALLS TO SPARSE MATRIX SOLVER PACKAGE IN TRANSPORT TIME STEP     314 STRESS PERIOD       2 SPECIES  1

 TOTAL OF       1OUTER ITERATIONS
  MAXIMUM CHANGE FOR EACH ITERATION:
   MAX. CHANGE        NODE  MAX. CHANGE        NODE  MAX. CHANGE        NODE  MAX. CHANGE        NODE  MAX. CHANGE        NODE
 ------------------------------------------------------------------------------------------------------------------------------------
  -0.17147    ,       1520
     TRANSPORT SOLUTION COMPLETE FOR COMPONENT SPECIES NUMBER    1
     ------------------------------------------------------------

 TRANSPORT SOLUTION COMPLETE FOR ALL SPECIES, SORTING OUTPUT FOR CONCENTRATIONS AND MASS BALANCE
 ----------------------------------------------------------------------------------------------------
     TRANSPORT OUTPUT FOR COMPONENT SPECIES NUMBER    1
     ------------------------------------------------------------
 -------------------------------------------------------------------------------------
 
 SOLVING FOR HEAD 

 Outer-Iteration  Inner-Iteration  Backtracking  Number of        Incoming       Outgoing      Cutoff     Maximum Head Change      Maximum Head Change
     Number           Count           Flag       Backtracks       Residual       Residual      Residual            Value               Location
        1                             0             0          0.411741E-02     0.411741E-02   -1.00000    
        1               11                                                                                       0.172756E-04               1438           GWF-node number
        2                             0             0          0.195008E-06     0.195008E-06   -1.00000    
        2                1                                                                                      -0.137721E-06               1724           GWF-node number
     2 CALLS TO SPARSE MATRIX SOLVER PACKAGE  IN FLOW TIME STEP     315 STRESS PERIOD       2

 TOTAL OF       2OUTER ITERATIONS
  MAXIMUM CHANGE FOR EACH ITERATION:
   MAX. CHANGE        NODE  MAX. CHANGE        NODE  MAX. CHANGE        NODE  MAX. CHANGE        NODE  MAX. CHANGE        NODE
 ------------------------------------------------------------------------------------------------------------------------------------
   0.17276E-04,       1438 -0.13772E-06,       1724

 NO OUTPUT CONTROL FOR STRESS PERIOD        2   TIME STEP      315



          TIME SUMMARY AT END OF TIME STEP       315 IN STRESS PERIOD         2
                    SECONDS     MINUTES      HOURS       DAYS        YEARS
                    -----------------------------------------------------------
   TIME STEP LENGTH  86.400      1.4400     2.40000E-02 1.00000E-03 2.73785E-06
 STRESS PERIOD TIME  27216.      453.60      7.5600     0.31500     8.62423E-04
         TOTAL TIME 1.13616E+05  1893.6      31.560      1.3150     3.60027E-03
1
 ------------------------------------------------------------------------------------------------------------
 
 SOLVING FOR TRANSPORT 

          SEQUENTIAL TRANSPORT ITERATION LOOP NUMBER    1
          -----------------------------------------------

 ------------------------------------------------------------------------------------------------------------------------
     1 CALLS TO SPARSE MATRIX SOLVER PACKAGE IN TRANSPORT TIME STEP     315 STRESS PERIOD       2 SPECIES  1

 TOTAL OF       1OUTER ITERATIONS
  MAXIMUM CHANGE FOR EACH ITERATION:
   MAX. CHANGE        NODE  MAX. CHANGE        NODE  MAX. CHANGE        NODE  MAX. CHANGE        NODE  MAX. CHANGE        NODE
 ------------------------------------------------------------------------------------------------------------------------------------
  -0.21132    ,       1520
     TRANSPORT SOLUTION COMPLETE FOR COMPONENT SPECIES NUMBER    1
     ------------------------------------------------------------

 TRANSPORT SOLUTION COMPLETE FOR ALL SPECIES, SORTING OUTPUT FOR CONCENTRATIONS AND MASS BALANCE
 ----------------------------------------------------------------------------------------------------
     TRANSPORT OUTPUT FOR COMPONENT SPECIES NUMBER    1
     ------------------------------------------------------------
 -------------------------------------------------------------------------------------
 
 SOLVING FOR HEAD 

 Outer-Iteration  Inner-Iteration  Backtracking  Number of        Incoming       Outgoing      Cutoff     Maximum Head Change      Maximum Head Change
     Number           Count           Flag       Backtracks       Residual       Residual      Residual            Value               Location
        1                             0             0          0.486629E-02     0.486629E-02   -1.00000    
        1               10                                                                                       0.183710E-04               1438           GWF-node number
        2                             0             0          0.489246E-06     0.489246E-06   -1.00000    
        2                1                                                                                       0.828008E-06               3124           GWF-node number
     2 CALLS TO SPARSE MATRIX SOLVER PACKAGE  IN FLOW TIME STEP     316 STRESS PERIOD       2

 TOTAL OF       2OUTER ITERATIONS
  MAXIMUM CHANGE FOR EACH ITERATION:
   MAX. CHANGE        NODE  MAX. CHANGE        NODE  MAX. CHANGE        NODE  MAX. CHANGE        NODE  MAX. CHANGE        NODE
 ------------------------------------------------------------------------------------------------------------------------------------
   0.18371E-04,       1438  0.82801E-06,       3124

 NO OUTPUT CONTROL FOR STRESS PERIOD        2   TIME STEP      316



          TIME SUMMARY AT END OF TIME STEP       316 IN STRESS PERIOD         2
                    SECONDS     MINUTES      HOURS       DAYS        YEARS
                    -----------------------------------------------------------
   TIME STEP LENGTH  86.400      1.4400     2.40000E-02 1.00000E-03 2.73785E-06
 STRESS PERIOD TIME  27302.      455.04      7.5840     0.31600     8.65161E-04
         TOTAL TIME 1.13702E+05  1895.0      31.584      1.3160     3.60301E-03
1
 ------------------------------------------------------------------------------------------------------------
 
 SOLVING FOR TRANSPORT 

          SEQUENTIAL TRANSPORT ITERATION LOOP NUMBER    1
          -----------------------------------------------

 ------------------------------------------------------------------------------------------------------------------------
     1 CALLS TO SPARSE MATRIX SOLVER PACKAGE IN TRANSPORT TIME STEP     316 STRESS PERIOD       2 SPECIES  1

 TOTAL OF       1OUTER ITERATIONS
  MAXIMUM CHANGE FOR EACH ITERATION:
   MAX. CHANGE        NODE  MAX. CHANGE        NODE  MAX. CHANGE        NODE  MAX. CHANGE        NODE  MAX. CHANGE        NODE
 ------------------------------------------------------------------------------------------------------------------------------------
  -0.25437    ,       1440
     TRANSPORT SOLUTION COMPLETE FOR COMPONENT SPECIES NUMBER    1
     ------------------------------------------------------------

 TRANSPORT SOLUTION COMPLETE FOR ALL SPECIES, SORTING OUTPUT FOR CONCENTRATIONS AND MASS BALANCE
 ----------------------------------------------------------------------------------------------------
     TRANSPORT OUTPUT FOR COMPONENT SPECIES NUMBER    1
     ------------------------------------------------------------
 -------------------------------------------------------------------------------------
 
 SOLVING FOR HEAD 

 Outer-Iteration  Inner-Iteration  Backtracking  Number of        Incoming       Outgoing      Cutoff     Maximum Head Change      Maximum Head Change
     Number           Count           Flag       Backtracks       Residual       Residual      Residual            Value               Location
        1                             0             0          0.600336E-02     0.600336E-02   -1.00000    
        1               10                                                                                       0.205896E-04               1438           GWF-node number
        2                             0             0          0.400272E-06     0.400272E-06   -1.00000    
        2                3                                                                                       0.347229E-06               3168           GWF-node number
     2 CALLS TO SPARSE MATRIX SOLVER PACKAGE  IN FLOW TIME STEP     317 STRESS PERIOD       2

 TOTAL OF       2OUTER ITERATIONS
  MAXIMUM CHANGE FOR EACH ITERATION:
   MAX. CHANGE        NODE  MAX. CHANGE        NODE  MAX. CHANGE        NODE  MAX. CHANGE        NODE  MAX. CHANGE        NODE
 ------------------------------------------------------------------------------------------------------------------------------------
   0.20590E-04,       1438  0.34723E-06,       3168

 NO OUTPUT CONTROL FOR STRESS PERIOD        2   TIME STEP      317



          TIME SUMMARY AT END OF TIME STEP       317 IN STRESS PERIOD         2
                    SECONDS     MINUTES      HOURS       DAYS        YEARS
                    -----------------------------------------------------------
   TIME STEP LENGTH  86.400      1.4400     2.40000E-02 1.00000E-03 2.73785E-06
 STRESS PERIOD TIME  27389.      456.48      7.6080     0.31700     8.67899E-04
         TOTAL TIME 1.13789E+05  1896.5      31.608      1.3170     3.60575E-03
1
 ------------------------------------------------------------------------------------------------------------
 
 SOLVING FOR TRANSPORT 

          SEQUENTIAL TRANSPORT ITERATION LOOP NUMBER    1
          -----------------------------------------------

 ------------------------------------------------------------------------------------------------------------------------
     1 CALLS TO SPARSE MATRIX SOLVER PACKAGE IN TRANSPORT TIME STEP     317 STRESS PERIOD       2 SPECIES  1

 TOTAL OF       1OUTER ITERATIONS
  MAXIMUM CHANGE FOR EACH ITERATION:
   MAX. CHANGE        NODE  MAX. CHANGE        NODE  MAX. CHANGE        NODE  MAX. CHANGE        NODE  MAX. CHANGE        NODE
 ------------------------------------------------------------------------------------------------------------------------------------
  -0.31451    ,       1440
     TRANSPORT SOLUTION COMPLETE FOR COMPONENT SPECIES NUMBER    1
     ------------------------------------------------------------

 TRANSPORT SOLUTION COMPLETE FOR ALL SPECIES, SORTING OUTPUT FOR CONCENTRATIONS AND MASS BALANCE
 ----------------------------------------------------------------------------------------------------
     TRANSPORT OUTPUT FOR COMPONENT SPECIES NUMBER    1
     ------------------------------------------------------------
 -------------------------------------------------------------------------------------
 
 SOLVING FOR HEAD 

 Outer-Iteration  Inner-Iteration  Backtracking  Number of        Incoming       Outgoing      Cutoff     Maximum Head Change      Maximum Head Change
     Number           Count           Flag       Backtracks       Residual       Residual      Residual            Value               Location
        1                             0             0          0.835259E-02     0.835259E-02   -1.00000    
        1               12                                                                                       0.258916E-04               1439           GWF-node number
        2                             0             0          0.980027E-06     0.980027E-06   -1.00000    
        2                2                                                                                      -0.108182E-05               1761           GWF-node number
     2 CALLS TO SPARSE MATRIX SOLVER PACKAGE  IN FLOW TIME STEP     318 STRESS PERIOD       2

 TOTAL OF       2OUTER ITERATIONS
  MAXIMUM CHANGE FOR EACH ITERATION:
   MAX. CHANGE        NODE  MAX. CHANGE        NODE  MAX. CHANGE        NODE  MAX. CHANGE        NODE  MAX. CHANGE        NODE
 ------------------------------------------------------------------------------------------------------------------------------------
   0.25892E-04,       1439 -0.10818E-05,       1761

 NO OUTPUT CONTROL FOR STRESS PERIOD        2   TIME STEP      318



          TIME SUMMARY AT END OF TIME STEP       318 IN STRESS PERIOD         2
                    SECONDS     MINUTES      HOURS       DAYS        YEARS
                    -----------------------------------------------------------
   TIME STEP LENGTH  86.400      1.4400     2.40000E-02 1.00000E-03 2.73785E-06
 STRESS PERIOD TIME  27475.      457.92      7.6320     0.31800     8.70637E-04
         TOTAL TIME 1.13875E+05  1897.9      31.632      1.3180     3.60849E-03
1
 ------------------------------------------------------------------------------------------------------------
 
 SOLVING FOR TRANSPORT 

          SEQUENTIAL TRANSPORT ITERATION LOOP NUMBER    1
          -----------------------------------------------

 ------------------------------------------------------------------------------------------------------------------------
     1 CALLS TO SPARSE MATRIX SOLVER PACKAGE IN TRANSPORT TIME STEP     318 STRESS PERIOD       2 SPECIES  1

 TOTAL OF       1OUTER ITERATIONS
  MAXIMUM CHANGE FOR EACH ITERATION:
   MAX. CHANGE        NODE  MAX. CHANGE        NODE  MAX. CHANGE        NODE  MAX. CHANGE        NODE  MAX. CHANGE        NODE
 ------------------------------------------------------------------------------------------------------------------------------------
  -0.29551    ,       1360
     TRANSPORT SOLUTION COMPLETE FOR COMPONENT SPECIES NUMBER    1
     ------------------------------------------------------------

 TRANSPORT SOLUTION COMPLETE FOR ALL SPECIES, SORTING OUTPUT FOR CONCENTRATIONS AND MASS BALANCE
 ----------------------------------------------------------------------------------------------------
     TRANSPORT OUTPUT FOR COMPONENT SPECIES NUMBER    1
     ------------------------------------------------------------
 -------------------------------------------------------------------------------------
 
 SOLVING FOR HEAD 

 Outer-Iteration  Inner-Iteration  Backtracking  Number of        Incoming       Outgoing      Cutoff     Maximum Head Change      Maximum Head Change
     Number           Count           Flag       Backtracks       Residual       Residual      Residual            Value               Location
        1                             0             0          0.764195E-02     0.764195E-02   -1.00000    
        1                7                                                                                       0.293640E-04               1359           GWF-node number
        2                             0             0          0.303248E-04     0.303248E-04   -1.00000    
        2                4                                                                                      -0.326975E-05               2321           GWF-node number
     2 CALLS TO SPARSE MATRIX SOLVER PACKAGE  IN FLOW TIME STEP     319 STRESS PERIOD       2

 TOTAL OF       2OUTER ITERATIONS
  MAXIMUM CHANGE FOR EACH ITERATION:
   MAX. CHANGE        NODE  MAX. CHANGE        NODE  MAX. CHANGE        NODE  MAX. CHANGE        NODE  MAX. CHANGE        NODE
 ------------------------------------------------------------------------------------------------------------------------------------
   0.29364E-04,       1359 -0.32698E-05,       2321

 NO OUTPUT CONTROL FOR STRESS PERIOD        2   TIME STEP      319



          TIME SUMMARY AT END OF TIME STEP       319 IN STRESS PERIOD         2
                    SECONDS     MINUTES      HOURS       DAYS        YEARS
                    -----------------------------------------------------------
   TIME STEP LENGTH  86.400      1.4400     2.40000E-02 1.00000E-03 2.73785E-06
 STRESS PERIOD TIME  27562.      459.36      7.6560     0.31900     8.73374E-04
         TOTAL TIME 1.13962E+05  1899.4      31.656      1.3190     3.61123E-03
1
 ------------------------------------------------------------------------------------------------------------
 
 SOLVING FOR TRANSPORT 

          SEQUENTIAL TRANSPORT ITERATION LOOP NUMBER    1
          -----------------------------------------------

 ------------------------------------------------------------------------------------------------------------------------
     1 CALLS TO SPARSE MATRIX SOLVER PACKAGE IN TRANSPORT TIME STEP     319 STRESS PERIOD       2 SPECIES  1

 TOTAL OF       1OUTER ITERATIONS
  MAXIMUM CHANGE FOR EACH ITERATION:
   MAX. CHANGE        NODE  MAX. CHANGE        NODE  MAX. CHANGE        NODE  MAX. CHANGE        NODE  MAX. CHANGE        NODE
 ------------------------------------------------------------------------------------------------------------------------------------
  -0.35842    ,       1360
     TRANSPORT SOLUTION COMPLETE FOR COMPONENT SPECIES NUMBER    1
     ------------------------------------------------------------

 TRANSPORT SOLUTION COMPLETE FOR ALL SPECIES, SORTING OUTPUT FOR CONCENTRATIONS AND MASS BALANCE
 ----------------------------------------------------------------------------------------------------
     TRANSPORT OUTPUT FOR COMPONENT SPECIES NUMBER    1
     ------------------------------------------------------------
 -------------------------------------------------------------------------------------
 
 SOLVING FOR HEAD 

 Outer-Iteration  Inner-Iteration  Backtracking  Number of        Incoming       Outgoing      Cutoff     Maximum Head Change      Maximum Head Change
     Number           Count           Flag       Backtracks       Residual       Residual      Residual            Value               Location
        1                             0             0          0.115339E-01     0.115339E-01   -1.00000    
        1                9                                                                                       0.284455E-04               1360           GWF-node number
        2                             0             0          0.165590E-05     0.165590E-05   -1.00000    
        2                2                                                                                      -0.522216E-06               1217           GWF-node number
     2 CALLS TO SPARSE MATRIX SOLVER PACKAGE  IN FLOW TIME STEP     320 STRESS PERIOD       2

 TOTAL OF       2OUTER ITERATIONS
  MAXIMUM CHANGE FOR EACH ITERATION:
   MAX. CHANGE        NODE  MAX. CHANGE        NODE  MAX. CHANGE        NODE  MAX. CHANGE        NODE  MAX. CHANGE        NODE
 ------------------------------------------------------------------------------------------------------------------------------------
   0.28445E-04,       1360 -0.52222E-06,       1217

 NO OUTPUT CONTROL FOR STRESS PERIOD        2   TIME STEP      320



          TIME SUMMARY AT END OF TIME STEP       320 IN STRESS PERIOD         2
                    SECONDS     MINUTES      HOURS       DAYS        YEARS
                    -----------------------------------------------------------
   TIME STEP LENGTH  86.400      1.4400     2.40000E-02 1.00000E-03 2.73785E-06
 STRESS PERIOD TIME  27648.      460.80      7.6800     0.32000     8.76112E-04
         TOTAL TIME 1.14048E+05  1900.8      31.680      1.3200     3.61396E-03
1
 ------------------------------------------------------------------------------------------------------------
 
 SOLVING FOR TRANSPORT 

          SEQUENTIAL TRANSPORT ITERATION LOOP NUMBER    1
          -----------------------------------------------

 ------------------------------------------------------------------------------------------------------------------------
     1 CALLS TO SPARSE MATRIX SOLVER PACKAGE IN TRANSPORT TIME STEP     320 STRESS PERIOD       2 SPECIES  1

 TOTAL OF       1OUTER ITERATIONS
  MAXIMUM CHANGE FOR EACH ITERATION:
   MAX. CHANGE        NODE  MAX. CHANGE        NODE  MAX. CHANGE        NODE  MAX. CHANGE        NODE  MAX. CHANGE        NODE
 ------------------------------------------------------------------------------------------------------------------------------------
  -0.40221    ,       1360
     TRANSPORT SOLUTION COMPLETE FOR COMPONENT SPECIES NUMBER    1
     ------------------------------------------------------------

 TRANSPORT SOLUTION COMPLETE FOR ALL SPECIES, SORTING OUTPUT FOR CONCENTRATIONS AND MASS BALANCE
 ----------------------------------------------------------------------------------------------------
     TRANSPORT OUTPUT FOR COMPONENT SPECIES NUMBER    1
     ------------------------------------------------------------
 -------------------------------------------------------------------------------------
 
 SOLVING FOR HEAD 

 Outer-Iteration  Inner-Iteration  Backtracking  Number of        Incoming       Outgoing      Cutoff     Maximum Head Change      Maximum Head Change
     Number           Count           Flag       Backtracks       Residual       Residual      Residual            Value               Location
        1                             0             0          0.183254E-01     0.183254E-01   -1.00000    
        1               10                                                                                       0.337526E-04               1360           GWF-node number
        2                             0             0          0.557699E-05     0.557699E-05   -1.00000    
        2                2                                                                                       0.153044E-05               2691           GWF-node number
     2 CALLS TO SPARSE MATRIX SOLVER PACKAGE  IN FLOW TIME STEP     321 STRESS PERIOD       2

 TOTAL OF       2OUTER ITERATIONS
  MAXIMUM CHANGE FOR EACH ITERATION:
   MAX. CHANGE        NODE  MAX. CHANGE        NODE  MAX. CHANGE        NODE  MAX. CHANGE        NODE  MAX. CHANGE        NODE
 ------------------------------------------------------------------------------------------------------------------------------------
   0.33753E-04,       1360  0.15304E-05,       2691

 NO OUTPUT CONTROL FOR STRESS PERIOD        2   TIME STEP      321



          TIME SUMMARY AT END OF TIME STEP       321 IN STRESS PERIOD         2
                    SECONDS     MINUTES      HOURS       DAYS        YEARS
                    -----------------------------------------------------------
   TIME STEP LENGTH  86.400      1.4400     2.40000E-02 1.00000E-03 2.73785E-06
 STRESS PERIOD TIME  27734.      462.24      7.7040     0.32100     8.78850E-04
         TOTAL TIME 1.14134E+05  1902.2      31.704      1.3210     3.61670E-03
1
 ------------------------------------------------------------------------------------------------------------
 
 SOLVING FOR TRANSPORT 

          SEQUENTIAL TRANSPORT ITERATION LOOP NUMBER    1
          -----------------------------------------------

 ------------------------------------------------------------------------------------------------------------------------
     1 CALLS TO SPARSE MATRIX SOLVER PACKAGE IN TRANSPORT TIME STEP     321 STRESS PERIOD       2 SPECIES  1

 TOTAL OF       1OUTER ITERATIONS
  MAXIMUM CHANGE FOR EACH ITERATION:
   MAX. CHANGE        NODE  MAX. CHANGE        NODE  MAX. CHANGE        NODE  MAX. CHANGE        NODE  MAX. CHANGE        NODE
 ------------------------------------------------------------------------------------------------------------------------------------
  -0.30393    ,       1280
     TRANSPORT SOLUTION COMPLETE FOR COMPONENT SPECIES NUMBER    1
     ------------------------------------------------------------

 TRANSPORT SOLUTION COMPLETE FOR ALL SPECIES, SORTING OUTPUT FOR CONCENTRATIONS AND MASS BALANCE
 ----------------------------------------------------------------------------------------------------
     TRANSPORT OUTPUT FOR COMPONENT SPECIES NUMBER    1
     ------------------------------------------------------------
 -------------------------------------------------------------------------------------
 
 SOLVING FOR HEAD 

 Outer-Iteration  Inner-Iteration  Backtracking  Number of        Incoming       Outgoing      Cutoff     Maximum Head Change      Maximum Head Change
     Number           Count           Flag       Backtracks       Residual       Residual      Residual            Value               Location
        1                             0             0          0.848770E-02     0.848770E-02   -1.00000    
        1               10                                                                                       0.278621E-04               1279           GWF-node number
        2                             0             0          0.617386E-06     0.617386E-06   -1.00000    
        2                1                                                                                      -0.695417E-06               2434           GWF-node number
     2 CALLS TO SPARSE MATRIX SOLVER PACKAGE  IN FLOW TIME STEP     322 STRESS PERIOD       2

 TOTAL OF       2OUTER ITERATIONS
  MAXIMUM CHANGE FOR EACH ITERATION:
   MAX. CHANGE        NODE  MAX. CHANGE        NODE  MAX. CHANGE        NODE  MAX. CHANGE        NODE  MAX. CHANGE        NODE
 ------------------------------------------------------------------------------------------------------------------------------------
   0.27862E-04,       1279 -0.69542E-06,       2434

 NO OUTPUT CONTROL FOR STRESS PERIOD        2   TIME STEP      322



          TIME SUMMARY AT END OF TIME STEP       322 IN STRESS PERIOD         2
                    SECONDS     MINUTES      HOURS       DAYS        YEARS
                    -----------------------------------------------------------
   TIME STEP LENGTH  86.400      1.4400     2.40000E-02 1.00000E-03 2.73785E-06
 STRESS PERIOD TIME  27821.      463.68      7.7280     0.32200     8.81588E-04
         TOTAL TIME 1.14221E+05  1903.7      31.728      1.3220     3.61944E-03
1
 ------------------------------------------------------------------------------------------------------------
 
 SOLVING FOR TRANSPORT 

          SEQUENTIAL TRANSPORT ITERATION LOOP NUMBER    1
          -----------------------------------------------

 ------------------------------------------------------------------------------------------------------------------------
     1 CALLS TO SPARSE MATRIX SOLVER PACKAGE IN TRANSPORT TIME STEP     322 STRESS PERIOD       2 SPECIES  1

 TOTAL OF       1OUTER ITERATIONS
  MAXIMUM CHANGE FOR EACH ITERATION:
   MAX. CHANGE        NODE  MAX. CHANGE        NODE  MAX. CHANGE        NODE  MAX. CHANGE        NODE  MAX. CHANGE        NODE
 ------------------------------------------------------------------------------------------------------------------------------------
  -0.37913    ,       1280
     TRANSPORT SOLUTION COMPLETE FOR COMPONENT SPECIES NUMBER    1
     ------------------------------------------------------------

 TRANSPORT SOLUTION COMPLETE FOR ALL SPECIES, SORTING OUTPUT FOR CONCENTRATIONS AND MASS BALANCE
 ----------------------------------------------------------------------------------------------------
     TRANSPORT OUTPUT FOR COMPONENT SPECIES NUMBER    1
     ------------------------------------------------------------
 -------------------------------------------------------------------------------------
 
 SOLVING FOR HEAD 

 Outer-Iteration  Inner-Iteration  Backtracking  Number of        Incoming       Outgoing      Cutoff     Maximum Head Change      Maximum Head Change
     Number           Count           Flag       Backtracks       Residual       Residual      Residual            Value               Location
        1                             0             0          0.154230E-01     0.154230E-01   -1.00000    
        1                9                                                                                       0.301520E-04               1280           GWF-node number
        2                             0             0          0.114587E-05     0.114587E-05   -1.00000    
        2                1                                                                                      -0.443448E-06               1218           GWF-node number
     2 CALLS TO SPARSE MATRIX SOLVER PACKAGE  IN FLOW TIME STEP     323 STRESS PERIOD       2

 TOTAL OF       2OUTER ITERATIONS
  MAXIMUM CHANGE FOR EACH ITERATION:
   MAX. CHANGE        NODE  MAX. CHANGE        NODE  MAX. CHANGE        NODE  MAX. CHANGE        NODE  MAX. CHANGE        NODE
 ------------------------------------------------------------------------------------------------------------------------------------
   0.30152E-04,       1280 -0.44345E-06,       1218

 NO OUTPUT CONTROL FOR STRESS PERIOD        2   TIME STEP      323



          TIME SUMMARY AT END OF TIME STEP       323 IN STRESS PERIOD         2
                    SECONDS     MINUTES      HOURS       DAYS        YEARS
                    -----------------------------------------------------------
   TIME STEP LENGTH  86.400      1.4400     2.40000E-02 1.00000E-03 2.73785E-06
 STRESS PERIOD TIME  27907.      465.12      7.7520     0.32300     8.84326E-04
         TOTAL TIME 1.14307E+05  1905.1      31.752      1.3230     3.62218E-03
1
 ------------------------------------------------------------------------------------------------------------
 
 SOLVING FOR TRANSPORT 

          SEQUENTIAL TRANSPORT ITERATION LOOP NUMBER    1
          -----------------------------------------------

 ------------------------------------------------------------------------------------------------------------------------
     1 CALLS TO SPARSE MATRIX SOLVER PACKAGE IN TRANSPORT TIME STEP     323 STRESS PERIOD       2 SPECIES  1

 TOTAL OF       1OUTER ITERATIONS
  MAXIMUM CHANGE FOR EACH ITERATION:
   MAX. CHANGE        NODE  MAX. CHANGE        NODE  MAX. CHANGE        NODE  MAX. CHANGE        NODE  MAX. CHANGE        NODE
 ------------------------------------------------------------------------------------------------------------------------------------
  -0.53717    ,       1280
     TRANSPORT SOLUTION COMPLETE FOR COMPONENT SPECIES NUMBER    1
     ------------------------------------------------------------

 TRANSPORT SOLUTION COMPLETE FOR ALL SPECIES, SORTING OUTPUT FOR CONCENTRATIONS AND MASS BALANCE
 ----------------------------------------------------------------------------------------------------
     TRANSPORT OUTPUT FOR COMPONENT SPECIES NUMBER    1
     ------------------------------------------------------------
 -------------------------------------------------------------------------------------
 
 SOLVING FOR HEAD 

 Outer-Iteration  Inner-Iteration  Backtracking  Number of        Incoming       Outgoing      Cutoff     Maximum Head Change      Maximum Head Change
     Number           Count           Flag       Backtracks       Residual       Residual      Residual            Value               Location
        1                             0             0          0.486542E-01     0.486542E-01   -1.00000    
        1               10                                                                                       0.485601E-04               1280           GWF-node number
        2                             0             0          0.451404E-05     0.451404E-05   -1.00000    
        2                3                                                                                       0.866151E-06               2106           GWF-node number
     2 CALLS TO SPARSE MATRIX SOLVER PACKAGE  IN FLOW TIME STEP     324 STRESS PERIOD       2

 TOTAL OF       2OUTER ITERATIONS
  MAXIMUM CHANGE FOR EACH ITERATION:
   MAX. CHANGE        NODE  MAX. CHANGE        NODE  MAX. CHANGE        NODE  MAX. CHANGE        NODE  MAX. CHANGE        NODE
 ------------------------------------------------------------------------------------------------------------------------------------
   0.48560E-04,       1280  0.86615E-06,       2106

 NO OUTPUT CONTROL FOR STRESS PERIOD        2   TIME STEP      324



          TIME SUMMARY AT END OF TIME STEP       324 IN STRESS PERIOD         2
                    SECONDS     MINUTES      HOURS       DAYS        YEARS
                    -----------------------------------------------------------
   TIME STEP LENGTH  86.400      1.4400     2.40000E-02 1.00000E-03 2.73785E-06
 STRESS PERIOD TIME  27994.      466.56      7.7760     0.32400     8.87064E-04
         TOTAL TIME 1.14394E+05  1906.6      31.776      1.3240     3.62491E-03
1
 ------------------------------------------------------------------------------------------------------------
 
 SOLVING FOR TRANSPORT 

          SEQUENTIAL TRANSPORT ITERATION LOOP NUMBER    1
          -----------------------------------------------

 ------------------------------------------------------------------------------------------------------------------------
     1 CALLS TO SPARSE MATRIX SOLVER PACKAGE IN TRANSPORT TIME STEP     324 STRESS PERIOD       2 SPECIES  1

 TOTAL OF       1OUTER ITERATIONS
  MAXIMUM CHANGE FOR EACH ITERATION:
   MAX. CHANGE        NODE  MAX. CHANGE        NODE  MAX. CHANGE        NODE  MAX. CHANGE        NODE  MAX. CHANGE        NODE
 ------------------------------------------------------------------------------------------------------------------------------------
  -0.43753    ,       1200
     TRANSPORT SOLUTION COMPLETE FOR COMPONENT SPECIES NUMBER    1
     ------------------------------------------------------------

 TRANSPORT SOLUTION COMPLETE FOR ALL SPECIES, SORTING OUTPUT FOR CONCENTRATIONS AND MASS BALANCE
 ----------------------------------------------------------------------------------------------------
     TRANSPORT OUTPUT FOR COMPONENT SPECIES NUMBER    1
     ------------------------------------------------------------
 -------------------------------------------------------------------------------------
 
 SOLVING FOR HEAD 

 Outer-Iteration  Inner-Iteration  Backtracking  Number of        Incoming       Outgoing      Cutoff     Maximum Head Change      Maximum Head Change
     Number           Count           Flag       Backtracks       Residual       Residual      Residual            Value               Location
        1                             0             0          0.231922E-01     0.231922E-01   -1.00000    
        1               12                                                                                       0.258954E-04               1280           GWF-node number
        2                             0             0          0.115376E-06     0.115376E-06   -1.00000    
        2                1                                                                                      -0.318950E-06               2108           GWF-node number
     2 CALLS TO SPARSE MATRIX SOLVER PACKAGE  IN FLOW TIME STEP     325 STRESS PERIOD       2

 TOTAL OF       2OUTER ITERATIONS
  MAXIMUM CHANGE FOR EACH ITERATION:
   MAX. CHANGE        NODE  MAX. CHANGE        NODE  MAX. CHANGE        NODE  MAX. CHANGE        NODE  MAX. CHANGE        NODE
 ------------------------------------------------------------------------------------------------------------------------------------
   0.25895E-04,       1280 -0.31895E-06,       2108

 NO OUTPUT CONTROL FOR STRESS PERIOD        2   TIME STEP      325



          TIME SUMMARY AT END OF TIME STEP       325 IN STRESS PERIOD         2
                    SECONDS     MINUTES      HOURS       DAYS        YEARS
                    -----------------------------------------------------------
   TIME STEP LENGTH  86.400      1.4400     2.40000E-02 1.00000E-03 2.73785E-06
 STRESS PERIOD TIME  28080.      468.00      7.8000     0.32500     8.89802E-04
         TOTAL TIME 1.14480E+05  1908.0      31.800      1.3250     3.62765E-03
1
 ------------------------------------------------------------------------------------------------------------
 
 SOLVING FOR TRANSPORT 

          SEQUENTIAL TRANSPORT ITERATION LOOP NUMBER    1
          -----------------------------------------------

 ------------------------------------------------------------------------------------------------------------------------
     1 CALLS TO SPARSE MATRIX SOLVER PACKAGE IN TRANSPORT TIME STEP     325 STRESS PERIOD       2 SPECIES  1

 TOTAL OF       1OUTER ITERATIONS
  MAXIMUM CHANGE FOR EACH ITERATION:
   MAX. CHANGE        NODE  MAX. CHANGE        NODE  MAX. CHANGE        NODE  MAX. CHANGE        NODE  MAX. CHANGE        NODE
 ------------------------------------------------------------------------------------------------------------------------------------
  -0.49637    ,       1200
     TRANSPORT SOLUTION COMPLETE FOR COMPONENT SPECIES NUMBER    1
     ------------------------------------------------------------

 TRANSPORT SOLUTION COMPLETE FOR ALL SPECIES, SORTING OUTPUT FOR CONCENTRATIONS AND MASS BALANCE
 ----------------------------------------------------------------------------------------------------
     TRANSPORT OUTPUT FOR COMPONENT SPECIES NUMBER    1
     ------------------------------------------------------------
 -------------------------------------------------------------------------------------
 
 SOLVING FOR HEAD 

 Outer-Iteration  Inner-Iteration  Backtracking  Number of        Incoming       Outgoing      Cutoff     Maximum Head Change      Maximum Head Change
     Number           Count           Flag       Backtracks       Residual       Residual      Residual            Value               Location
        1                             0             0          0.380094E-01     0.380094E-01   -1.00000    
        1               12                                                                                       0.415077E-04               1200           GWF-node number
        2                             0             0          0.408683E-06     0.408683E-06   -1.00000    
        2                1                                                                                      -0.322745E-06               1779           GWF-node number
     2 CALLS TO SPARSE MATRIX SOLVER PACKAGE  IN FLOW TIME STEP     326 STRESS PERIOD       2

 TOTAL OF       2OUTER ITERATIONS
  MAXIMUM CHANGE FOR EACH ITERATION:
   MAX. CHANGE        NODE  MAX. CHANGE        NODE  MAX. CHANGE        NODE  MAX. CHANGE        NODE  MAX. CHANGE        NODE
 ------------------------------------------------------------------------------------------------------------------------------------
   0.41508E-04,       1200 -0.32274E-06,       1779

 NO OUTPUT CONTROL FOR STRESS PERIOD        2   TIME STEP      326



          TIME SUMMARY AT END OF TIME STEP       326 IN STRESS PERIOD         2
                    SECONDS     MINUTES      HOURS       DAYS        YEARS
                    -----------------------------------------------------------
   TIME STEP LENGTH  86.400      1.4400     2.40000E-02 1.00000E-03 2.73785E-06
 STRESS PERIOD TIME  28166.      469.44      7.8240     0.32600     8.92539E-04
         TOTAL TIME 1.14566E+05  1909.4      31.824      1.3260     3.63039E-03
1
 ------------------------------------------------------------------------------------------------------------
 
 SOLVING FOR TRANSPORT 

          SEQUENTIAL TRANSPORT ITERATION LOOP NUMBER    1
          -----------------------------------------------

 ------------------------------------------------------------------------------------------------------------------------
     1 CALLS TO SPARSE MATRIX SOLVER PACKAGE IN TRANSPORT TIME STEP     326 STRESS PERIOD       2 SPECIES  1

 TOTAL OF       1OUTER ITERATIONS
  MAXIMUM CHANGE FOR EACH ITERATION:
   MAX. CHANGE        NODE  MAX. CHANGE        NODE  MAX. CHANGE        NODE  MAX. CHANGE        NODE  MAX. CHANGE        NODE
 ------------------------------------------------------------------------------------------------------------------------------------
  -0.59282    ,       1200
     TRANSPORT SOLUTION COMPLETE FOR COMPONENT SPECIES NUMBER    1
     ------------------------------------------------------------

 TRANSPORT SOLUTION COMPLETE FOR ALL SPECIES, SORTING OUTPUT FOR CONCENTRATIONS AND MASS BALANCE
 ----------------------------------------------------------------------------------------------------
     TRANSPORT OUTPUT FOR COMPONENT SPECIES NUMBER    1
     ------------------------------------------------------------
 -------------------------------------------------------------------------------------
 
 SOLVING FOR HEAD 

 Outer-Iteration  Inner-Iteration  Backtracking  Number of        Incoming       Outgoing      Cutoff     Maximum Head Change      Maximum Head Change
     Number           Count           Flag       Backtracks       Residual       Residual      Residual            Value               Location
        1                             0             0          0.911691E-01     0.911691E-01   -1.00000    
        1               12                                                                                       0.584919E-04               1200           GWF-node number
        2                             0             0          0.378275E-06     0.378275E-06   -1.00000    
        2                1                                                                                      -0.867144E-06               1552           GWF-node number
     2 CALLS TO SPARSE MATRIX SOLVER PACKAGE  IN FLOW TIME STEP     327 STRESS PERIOD       2

 TOTAL OF       2OUTER ITERATIONS
  MAXIMUM CHANGE FOR EACH ITERATION:
   MAX. CHANGE        NODE  MAX. CHANGE        NODE  MAX. CHANGE        NODE  MAX. CHANGE        NODE  MAX. CHANGE        NODE
 ------------------------------------------------------------------------------------------------------------------------------------
   0.58492E-04,       1200 -0.86714E-06,       1552

 NO OUTPUT CONTROL FOR STRESS PERIOD        2   TIME STEP      327



          TIME SUMMARY AT END OF TIME STEP       327 IN STRESS PERIOD         2
                    SECONDS     MINUTES      HOURS       DAYS        YEARS
                    -----------------------------------------------------------
   TIME STEP LENGTH  86.400      1.4400     2.40000E-02 1.00000E-03 2.73785E-06
 STRESS PERIOD TIME  28253.      470.88      7.8480     0.32700     8.95277E-04
         TOTAL TIME 1.14653E+05  1910.9      31.848      1.3270     3.63313E-03
1
 ------------------------------------------------------------------------------------------------------------
 
 SOLVING FOR TRANSPORT 

          SEQUENTIAL TRANSPORT ITERATION LOOP NUMBER    1
          -----------------------------------------------

 ------------------------------------------------------------------------------------------------------------------------
     1 CALLS TO SPARSE MATRIX SOLVER PACKAGE IN TRANSPORT TIME STEP     327 STRESS PERIOD       2 SPECIES  1

 TOTAL OF       1OUTER ITERATIONS
  MAXIMUM CHANGE FOR EACH ITERATION:
   MAX. CHANGE        NODE  MAX. CHANGE        NODE  MAX. CHANGE        NODE  MAX. CHANGE        NODE  MAX. CHANGE        NODE
 ------------------------------------------------------------------------------------------------------------------------------------
   0.37494    ,       1440
     TRANSPORT SOLUTION COMPLETE FOR COMPONENT SPECIES NUMBER    1
     ------------------------------------------------------------

 TRANSPORT SOLUTION COMPLETE FOR ALL SPECIES, SORTING OUTPUT FOR CONCENTRATIONS AND MASS BALANCE
 ----------------------------------------------------------------------------------------------------
     TRANSPORT OUTPUT FOR COMPONENT SPECIES NUMBER    1
     ------------------------------------------------------------
 -------------------------------------------------------------------------------------
 
 SOLVING FOR HEAD 

 Outer-Iteration  Inner-Iteration  Backtracking  Number of        Incoming       Outgoing      Cutoff     Maximum Head Change      Maximum Head Change
     Number           Count           Flag       Backtracks       Residual       Residual      Residual            Value               Location
        1                             0             0          0.124764E-01     0.124764E-01   -1.00000    
        1               10                                                                                      -0.278653E-04               1440           GWF-node number
        2                             0             0          0.264037E-06     0.264037E-06   -1.00000    
        2                1                                                                                       0.620408E-06               2017           GWF-node number
     2 CALLS TO SPARSE MATRIX SOLVER PACKAGE  IN FLOW TIME STEP     328 STRESS PERIOD       2

 TOTAL OF       2OUTER ITERATIONS
  MAXIMUM CHANGE FOR EACH ITERATION:
   MAX. CHANGE        NODE  MAX. CHANGE        NODE  MAX. CHANGE        NODE  MAX. CHANGE        NODE  MAX. CHANGE        NODE
 ------------------------------------------------------------------------------------------------------------------------------------
  -0.27865E-04,       1440  0.62041E-06,       2017

 NO OUTPUT CONTROL FOR STRESS PERIOD        2   TIME STEP      328



          TIME SUMMARY AT END OF TIME STEP       328 IN STRESS PERIOD         2
                    SECONDS     MINUTES      HOURS       DAYS        YEARS
                    -----------------------------------------------------------
   TIME STEP LENGTH  86.400      1.4400     2.40000E-02 1.00000E-03 2.73785E-06
 STRESS PERIOD TIME  28339.      472.32      7.8720     0.32800     8.98015E-04
         TOTAL TIME 1.14739E+05  1912.3      31.872      1.3280     3.63587E-03
1
 ------------------------------------------------------------------------------------------------------------
 
 SOLVING FOR TRANSPORT 

          SEQUENTIAL TRANSPORT ITERATION LOOP NUMBER    1
          -----------------------------------------------

 ------------------------------------------------------------------------------------------------------------------------
     1 CALLS TO SPARSE MATRIX SOLVER PACKAGE IN TRANSPORT TIME STEP     328 STRESS PERIOD       2 SPECIES  1

 TOTAL OF       1OUTER ITERATIONS
  MAXIMUM CHANGE FOR EACH ITERATION:
   MAX. CHANGE        NODE  MAX. CHANGE        NODE  MAX. CHANGE        NODE  MAX. CHANGE        NODE  MAX. CHANGE        NODE
 ------------------------------------------------------------------------------------------------------------------------------------
   0.39099    ,       1440
     TRANSPORT SOLUTION COMPLETE FOR COMPONENT SPECIES NUMBER    1
     ------------------------------------------------------------

 TRANSPORT SOLUTION COMPLETE FOR ALL SPECIES, SORTING OUTPUT FOR CONCENTRATIONS AND MASS BALANCE
 ----------------------------------------------------------------------------------------------------
     TRANSPORT OUTPUT FOR COMPONENT SPECIES NUMBER    1
     ------------------------------------------------------------
 -------------------------------------------------------------------------------------
 
 SOLVING FOR HEAD 

 Outer-Iteration  Inner-Iteration  Backtracking  Number of        Incoming       Outgoing      Cutoff     Maximum Head Change      Maximum Head Change
     Number           Count           Flag       Backtracks       Residual       Residual      Residual            Value               Location
        1                             0             0          0.906972E-02     0.906972E-02   -1.00000    
        1               12                                                                                      -0.264718E-04               1440           GWF-node number
        2                             0             0          0.134932E-06     0.134932E-06   -1.00000    
        2                1                                                                                       0.531466E-06               3121           GWF-node number
     2 CALLS TO SPARSE MATRIX SOLVER PACKAGE  IN FLOW TIME STEP     329 STRESS PERIOD       2

 TOTAL OF       2OUTER ITERATIONS
  MAXIMUM CHANGE FOR EACH ITERATION:
   MAX. CHANGE        NODE  MAX. CHANGE        NODE  MAX. CHANGE        NODE  MAX. CHANGE        NODE  MAX. CHANGE        NODE
 ------------------------------------------------------------------------------------------------------------------------------------
  -0.26472E-04,       1440  0.53147E-06,       3121

 NO OUTPUT CONTROL FOR STRESS PERIOD        2   TIME STEP      329



          TIME SUMMARY AT END OF TIME STEP       329 IN STRESS PERIOD         2
                    SECONDS     MINUTES      HOURS       DAYS        YEARS
                    -----------------------------------------------------------
   TIME STEP LENGTH  86.400      1.4400     2.40000E-02 1.00000E-03 2.73785E-06
 STRESS PERIOD TIME  28426.      473.76      7.8960     0.32900     9.00753E-04
         TOTAL TIME 1.14826E+05  1913.8      31.896      1.3290     3.63860E-03
1
 ------------------------------------------------------------------------------------------------------------
 
 SOLVING FOR TRANSPORT 

          SEQUENTIAL TRANSPORT ITERATION LOOP NUMBER    1
          -----------------------------------------------

 ------------------------------------------------------------------------------------------------------------------------
     1 CALLS TO SPARSE MATRIX SOLVER PACKAGE IN TRANSPORT TIME STEP     329 STRESS PERIOD       2 SPECIES  1

 TOTAL OF       1OUTER ITERATIONS
  MAXIMUM CHANGE FOR EACH ITERATION:
   MAX. CHANGE        NODE  MAX. CHANGE        NODE  MAX. CHANGE        NODE  MAX. CHANGE        NODE  MAX. CHANGE        NODE
 ------------------------------------------------------------------------------------------------------------------------------------
   0.45411    ,       1360
     TRANSPORT SOLUTION COMPLETE FOR COMPONENT SPECIES NUMBER    1
     ------------------------------------------------------------

 TRANSPORT SOLUTION COMPLETE FOR ALL SPECIES, SORTING OUTPUT FOR CONCENTRATIONS AND MASS BALANCE
 ----------------------------------------------------------------------------------------------------
     TRANSPORT OUTPUT FOR COMPONENT SPECIES NUMBER    1
     ------------------------------------------------------------
 -------------------------------------------------------------------------------------
 
 SOLVING FOR HEAD 

 Outer-Iteration  Inner-Iteration  Backtracking  Number of        Incoming       Outgoing      Cutoff     Maximum Head Change      Maximum Head Change
     Number           Count           Flag       Backtracks       Residual       Residual      Residual            Value               Location
        1                             0             0          0.101280E-01     0.101280E-01   -1.00000    
        1               13                                                                                      -0.266302E-04               1360           GWF-node number
        2                             0             0          0.192730E-07     0.192730E-07   -1.00000    
        2                1                                                                                       0.691729E-07               1171           GWF-node number
     2 CALLS TO SPARSE MATRIX SOLVER PACKAGE  IN FLOW TIME STEP     330 STRESS PERIOD       2

 TOTAL OF       2OUTER ITERATIONS
  MAXIMUM CHANGE FOR EACH ITERATION:
   MAX. CHANGE        NODE  MAX. CHANGE        NODE  MAX. CHANGE        NODE  MAX. CHANGE        NODE  MAX. CHANGE        NODE
 ------------------------------------------------------------------------------------------------------------------------------------
  -0.26630E-04,       1360  0.69173E-07,       1171

 NO OUTPUT CONTROL FOR STRESS PERIOD        2   TIME STEP      330



          TIME SUMMARY AT END OF TIME STEP       330 IN STRESS PERIOD         2
                    SECONDS     MINUTES      HOURS       DAYS        YEARS
                    -----------------------------------------------------------
   TIME STEP LENGTH  86.400      1.4400     2.40000E-02 1.00000E-03 2.73785E-06
 STRESS PERIOD TIME  28512.      475.20      7.9200     0.33000     9.03491E-04
         TOTAL TIME 1.14912E+05  1915.2      31.920      1.3300     3.64134E-03
1
 ------------------------------------------------------------------------------------------------------------
 
 SOLVING FOR TRANSPORT 

          SEQUENTIAL TRANSPORT ITERATION LOOP NUMBER    1
          -----------------------------------------------

 ------------------------------------------------------------------------------------------------------------------------
     1 CALLS TO SPARSE MATRIX SOLVER PACKAGE IN TRANSPORT TIME STEP     330 STRESS PERIOD       2 SPECIES  1

 TOTAL OF       1OUTER ITERATIONS
  MAXIMUM CHANGE FOR EACH ITERATION:
   MAX. CHANGE        NODE  MAX. CHANGE        NODE  MAX. CHANGE        NODE  MAX. CHANGE        NODE  MAX. CHANGE        NODE
 ------------------------------------------------------------------------------------------------------------------------------------
   0.41193    ,       1360
     TRANSPORT SOLUTION COMPLETE FOR COMPONENT SPECIES NUMBER    1
     ------------------------------------------------------------

 TRANSPORT SOLUTION COMPLETE FOR ALL SPECIES, SORTING OUTPUT FOR CONCENTRATIONS AND MASS BALANCE
 ----------------------------------------------------------------------------------------------------
     TRANSPORT OUTPUT FOR COMPONENT SPECIES NUMBER    1
     ------------------------------------------------------------
 -------------------------------------------------------------------------------------
 
 SOLVING FOR HEAD 

 Outer-Iteration  Inner-Iteration  Backtracking  Number of        Incoming       Outgoing      Cutoff     Maximum Head Change      Maximum Head Change
     Number           Count           Flag       Backtracks       Residual       Residual      Residual            Value               Location
        1                             0             0          0.881185E-02     0.881185E-02   -1.00000    
        1               11                                                                                      -0.242601E-04               1360           GWF-node number
        2                             0             0          0.134493E-06     0.134493E-06   -1.00000    
        2                1                                                                                       0.643092E-06               1471           GWF-node number
     2 CALLS TO SPARSE MATRIX SOLVER PACKAGE  IN FLOW TIME STEP     331 STRESS PERIOD       2

 TOTAL OF       2OUTER ITERATIONS
  MAXIMUM CHANGE FOR EACH ITERATION:
   MAX. CHANGE        NODE  MAX. CHANGE        NODE  MAX. CHANGE        NODE  MAX. CHANGE        NODE  MAX. CHANGE        NODE
 ------------------------------------------------------------------------------------------------------------------------------------
  -0.24260E-04,       1360  0.64309E-06,       1471

 NO OUTPUT CONTROL FOR STRESS PERIOD        2   TIME STEP      331



          TIME SUMMARY AT END OF TIME STEP       331 IN STRESS PERIOD         2
                    SECONDS     MINUTES      HOURS       DAYS        YEARS
                    -----------------------------------------------------------
   TIME STEP LENGTH  86.400      1.4400     2.40000E-02 1.00000E-03 2.73785E-06
 STRESS PERIOD TIME  28598.      476.64      7.9440     0.33100     9.06229E-04
         TOTAL TIME 1.14998E+05  1916.6      31.944      1.3310     3.64408E-03
1
 ------------------------------------------------------------------------------------------------------------
 
 SOLVING FOR TRANSPORT 

          SEQUENTIAL TRANSPORT ITERATION LOOP NUMBER    1
          -----------------------------------------------

 ------------------------------------------------------------------------------------------------------------------------
     1 CALLS TO SPARSE MATRIX SOLVER PACKAGE IN TRANSPORT TIME STEP     331 STRESS PERIOD       2 SPECIES  1

 TOTAL OF       1OUTER ITERATIONS
  MAXIMUM CHANGE FOR EACH ITERATION:
   MAX. CHANGE        NODE  MAX. CHANGE        NODE  MAX. CHANGE        NODE  MAX. CHANGE        NODE  MAX. CHANGE        NODE
 ------------------------------------------------------------------------------------------------------------------------------------
   0.40447    ,       1280
     TRANSPORT SOLUTION COMPLETE FOR COMPONENT SPECIES NUMBER    1
     ------------------------------------------------------------

 TRANSPORT SOLUTION COMPLETE FOR ALL SPECIES, SORTING OUTPUT FOR CONCENTRATIONS AND MASS BALANCE
 ----------------------------------------------------------------------------------------------------
     TRANSPORT OUTPUT FOR COMPONENT SPECIES NUMBER    1
     ------------------------------------------------------------
 -------------------------------------------------------------------------------------
 
 SOLVING FOR HEAD 

 Outer-Iteration  Inner-Iteration  Backtracking  Number of        Incoming       Outgoing      Cutoff     Maximum Head Change      Maximum Head Change
     Number           Count           Flag       Backtracks       Residual       Residual      Residual            Value               Location
        1                             0             0          0.722739E-02     0.722739E-02   -1.00000    
        1               11                                                                                       0.200114E-04                790           GWF-node number
        2                             0             0          0.882871E-07     0.882871E-07   -1.00000    
        2                1                                                                                      -0.187363E-06               3086           GWF-node number
     2 CALLS TO SPARSE MATRIX SOLVER PACKAGE  IN FLOW TIME STEP     332 STRESS PERIOD       2

 TOTAL OF       2OUTER ITERATIONS
  MAXIMUM CHANGE FOR EACH ITERATION:
   MAX. CHANGE        NODE  MAX. CHANGE        NODE  MAX. CHANGE        NODE  MAX. CHANGE        NODE  MAX. CHANGE        NODE
 ------------------------------------------------------------------------------------------------------------------------------------
   0.20011E-04,        790 -0.18736E-06,       3086

 NO OUTPUT CONTROL FOR STRESS PERIOD        2   TIME STEP      332



          TIME SUMMARY AT END OF TIME STEP       332 IN STRESS PERIOD         2
                    SECONDS     MINUTES      HOURS       DAYS        YEARS
                    -----------------------------------------------------------
   TIME STEP LENGTH  86.400      1.4400     2.40000E-02 1.00000E-03 2.73785E-06
 STRESS PERIOD TIME  28685.      478.08      7.9680     0.33200     9.08967E-04
         TOTAL TIME 1.15085E+05  1918.1      31.968      1.3320     3.64682E-03
1
 ------------------------------------------------------------------------------------------------------------
 
 SOLVING FOR TRANSPORT 

          SEQUENTIAL TRANSPORT ITERATION LOOP NUMBER    1
          -----------------------------------------------

 ------------------------------------------------------------------------------------------------------------------------
     1 CALLS TO SPARSE MATRIX SOLVER PACKAGE IN TRANSPORT TIME STEP     332 STRESS PERIOD       2 SPECIES  1

 TOTAL OF       1OUTER ITERATIONS
  MAXIMUM CHANGE FOR EACH ITERATION:
   MAX. CHANGE        NODE  MAX. CHANGE        NODE  MAX. CHANGE        NODE  MAX. CHANGE        NODE  MAX. CHANGE        NODE
 ------------------------------------------------------------------------------------------------------------------------------------
   0.38149    ,       1280
     TRANSPORT SOLUTION COMPLETE FOR COMPONENT SPECIES NUMBER    1
     ------------------------------------------------------------

 TRANSPORT SOLUTION COMPLETE FOR ALL SPECIES, SORTING OUTPUT FOR CONCENTRATIONS AND MASS BALANCE
 ----------------------------------------------------------------------------------------------------
     TRANSPORT OUTPUT FOR COMPONENT SPECIES NUMBER    1
     ------------------------------------------------------------
 -------------------------------------------------------------------------------------
 
 SOLVING FOR HEAD 

 Outer-Iteration  Inner-Iteration  Backtracking  Number of        Incoming       Outgoing      Cutoff     Maximum Head Change      Maximum Head Change
     Number           Count           Flag       Backtracks       Residual       Residual      Residual            Value               Location
        1                             0             0          0.838983E-02     0.838983E-02   -1.00000    
        1               11                                                                                      -0.218295E-04               1280           GWF-node number
        2                             0             0          0.334584E-06     0.334584E-06   -1.00000    
        2                1                                                                                       0.197371E-06                481           GWF-node number
     2 CALLS TO SPARSE MATRIX SOLVER PACKAGE  IN FLOW TIME STEP     333 STRESS PERIOD       2

 TOTAL OF       2OUTER ITERATIONS
  MAXIMUM CHANGE FOR EACH ITERATION:
   MAX. CHANGE        NODE  MAX. CHANGE        NODE  MAX. CHANGE        NODE  MAX. CHANGE        NODE  MAX. CHANGE        NODE
 ------------------------------------------------------------------------------------------------------------------------------------
  -0.21829E-04,       1280  0.19737E-06,        481

 NO OUTPUT CONTROL FOR STRESS PERIOD        2   TIME STEP      333



          TIME SUMMARY AT END OF TIME STEP       333 IN STRESS PERIOD         2
                    SECONDS     MINUTES      HOURS       DAYS        YEARS
                    -----------------------------------------------------------
   TIME STEP LENGTH  86.400      1.4400     2.40000E-02 1.00000E-03 2.73785E-06
 STRESS PERIOD TIME  28771.      479.52      7.9920     0.33300     9.11704E-04
         TOTAL TIME 1.15171E+05  1919.5      31.992      1.3330     3.64956E-03
1
 ------------------------------------------------------------------------------------------------------------
 
 SOLVING FOR TRANSPORT 

          SEQUENTIAL TRANSPORT ITERATION LOOP NUMBER    1
          -----------------------------------------------

 ------------------------------------------------------------------------------------------------------------------------
     1 CALLS TO SPARSE MATRIX SOLVER PACKAGE IN TRANSPORT TIME STEP     333 STRESS PERIOD       2 SPECIES  1

 TOTAL OF       1OUTER ITERATIONS
  MAXIMUM CHANGE FOR EACH ITERATION:
   MAX. CHANGE        NODE  MAX. CHANGE        NODE  MAX. CHANGE        NODE  MAX. CHANGE        NODE  MAX. CHANGE        NODE
 ------------------------------------------------------------------------------------------------------------------------------------
   0.32198    ,       1040
     TRANSPORT SOLUTION COMPLETE FOR COMPONENT SPECIES NUMBER    1
     ------------------------------------------------------------

 TRANSPORT SOLUTION COMPLETE FOR ALL SPECIES, SORTING OUTPUT FOR CONCENTRATIONS AND MASS BALANCE
 ----------------------------------------------------------------------------------------------------
     TRANSPORT OUTPUT FOR COMPONENT SPECIES NUMBER    1
     ------------------------------------------------------------
 -------------------------------------------------------------------------------------
 
 SOLVING FOR HEAD 

 Outer-Iteration  Inner-Iteration  Backtracking  Number of        Incoming       Outgoing      Cutoff     Maximum Head Change      Maximum Head Change
     Number           Count           Flag       Backtracks       Residual       Residual      Residual            Value               Location
        1                             0             0          0.646148E-02     0.646148E-02   -1.00000    
        1               10                                                                                      -0.178524E-04               1280           GWF-node number
        2                             0             0          0.286263E-06     0.286263E-06   -1.00000    
        2                1                                                                                       0.519475E-06               1774           GWF-node number
     2 CALLS TO SPARSE MATRIX SOLVER PACKAGE  IN FLOW TIME STEP     334 STRESS PERIOD       2

 TOTAL OF       2OUTER ITERATIONS
  MAXIMUM CHANGE FOR EACH ITERATION:
   MAX. CHANGE        NODE  MAX. CHANGE        NODE  MAX. CHANGE        NODE  MAX. CHANGE        NODE  MAX. CHANGE        NODE
 ------------------------------------------------------------------------------------------------------------------------------------
  -0.17852E-04,       1280  0.51947E-06,       1774

 NO OUTPUT CONTROL FOR STRESS PERIOD        2   TIME STEP      334



          TIME SUMMARY AT END OF TIME STEP       334 IN STRESS PERIOD         2
                    SECONDS     MINUTES      HOURS       DAYS        YEARS
                    -----------------------------------------------------------
   TIME STEP LENGTH  86.400      1.4400     2.40000E-02 1.00000E-03 2.73785E-06
 STRESS PERIOD TIME  28858.      480.96      8.0160     0.33400     9.14442E-04
         TOTAL TIME 1.15258E+05  1921.0      32.016      1.3340     3.65229E-03
1
 ------------------------------------------------------------------------------------------------------------
 
 SOLVING FOR TRANSPORT 

          SEQUENTIAL TRANSPORT ITERATION LOOP NUMBER    1
          -----------------------------------------------

 ------------------------------------------------------------------------------------------------------------------------
     1 CALLS TO SPARSE MATRIX SOLVER PACKAGE IN TRANSPORT TIME STEP     334 STRESS PERIOD       2 SPECIES  1

 TOTAL OF       1OUTER ITERATIONS
  MAXIMUM CHANGE FOR EACH ITERATION:
   MAX. CHANGE        NODE  MAX. CHANGE        NODE  MAX. CHANGE        NODE  MAX. CHANGE        NODE  MAX. CHANGE        NODE
 ------------------------------------------------------------------------------------------------------------------------------------
   0.26546    ,        960
     TRANSPORT SOLUTION COMPLETE FOR COMPONENT SPECIES NUMBER    1
     ------------------------------------------------------------

 TRANSPORT SOLUTION COMPLETE FOR ALL SPECIES, SORTING OUTPUT FOR CONCENTRATIONS AND MASS BALANCE
 ----------------------------------------------------------------------------------------------------
     TRANSPORT OUTPUT FOR COMPONENT SPECIES NUMBER    1
     ------------------------------------------------------------
 -------------------------------------------------------------------------------------
 
 SOLVING FOR HEAD 

 Outer-Iteration  Inner-Iteration  Backtracking  Number of        Incoming       Outgoing      Cutoff     Maximum Head Change      Maximum Head Change
     Number           Count           Flag       Backtracks       Residual       Residual      Residual            Value               Location
        1                             0             0          0.410704E-02     0.410704E-02   -1.00000    
        1               11                                                                                       0.153984E-04               1517           GWF-node number
        2                             0             0          0.299082E-06     0.299082E-06   -1.00000    
        2                1                                                                                      -0.365596E-06               2253           GWF-node number
     2 CALLS TO SPARSE MATRIX SOLVER PACKAGE  IN FLOW TIME STEP     335 STRESS PERIOD       2

 TOTAL OF       2OUTER ITERATIONS
  MAXIMUM CHANGE FOR EACH ITERATION:
   MAX. CHANGE        NODE  MAX. CHANGE        NODE  MAX. CHANGE        NODE  MAX. CHANGE        NODE  MAX. CHANGE        NODE
 ------------------------------------------------------------------------------------------------------------------------------------
   0.15398E-04,       1517 -0.36560E-06,       2253

 NO OUTPUT CONTROL FOR STRESS PERIOD        2   TIME STEP      335



          TIME SUMMARY AT END OF TIME STEP       335 IN STRESS PERIOD         2
                    SECONDS     MINUTES      HOURS       DAYS        YEARS
                    -----------------------------------------------------------
   TIME STEP LENGTH  86.400      1.4400     2.40000E-02 1.00000E-03 2.73785E-06
 STRESS PERIOD TIME  28944.      482.40      8.0400     0.33500     9.17180E-04
         TOTAL TIME 1.15344E+05  1922.4      32.040      1.3350     3.65503E-03
1
 ------------------------------------------------------------------------------------------------------------
 
 SOLVING FOR TRANSPORT 

          SEQUENTIAL TRANSPORT ITERATION LOOP NUMBER    1
          -----------------------------------------------

 ------------------------------------------------------------------------------------------------------------------------
     1 CALLS TO SPARSE MATRIX SOLVER PACKAGE IN TRANSPORT TIME STEP     335 STRESS PERIOD       2 SPECIES  1

 TOTAL OF       1OUTER ITERATIONS
  MAXIMUM CHANGE FOR EACH ITERATION:
   MAX. CHANGE        NODE  MAX. CHANGE        NODE  MAX. CHANGE        NODE  MAX. CHANGE        NODE  MAX. CHANGE        NODE
 ------------------------------------------------------------------------------------------------------------------------------------
   0.20714    ,        880
     TRANSPORT SOLUTION COMPLETE FOR COMPONENT SPECIES NUMBER    1
     ------------------------------------------------------------

 TRANSPORT SOLUTION COMPLETE FOR ALL SPECIES, SORTING OUTPUT FOR CONCENTRATIONS AND MASS BALANCE
 ----------------------------------------------------------------------------------------------------
     TRANSPORT OUTPUT FOR COMPONENT SPECIES NUMBER    1
     ------------------------------------------------------------
 -------------------------------------------------------------------------------------
 
 SOLVING FOR HEAD 

 Outer-Iteration  Inner-Iteration  Backtracking  Number of        Incoming       Outgoing      Cutoff     Maximum Head Change      Maximum Head Change
     Number           Count           Flag       Backtracks       Residual       Residual      Residual            Value               Location
        1                             0             0          0.307027E-02     0.307027E-02   -1.00000    
        1               11                                                                                       0.164504E-04               1517           GWF-node number
        2                             0             0          0.199071E-06     0.199071E-06   -1.00000    
        2                1                                                                                       0.252357E-06               1066           GWF-node number
     2 CALLS TO SPARSE MATRIX SOLVER PACKAGE  IN FLOW TIME STEP     336 STRESS PERIOD       2

 TOTAL OF       2OUTER ITERATIONS
  MAXIMUM CHANGE FOR EACH ITERATION:
   MAX. CHANGE        NODE  MAX. CHANGE        NODE  MAX. CHANGE        NODE  MAX. CHANGE        NODE  MAX. CHANGE        NODE
 ------------------------------------------------------------------------------------------------------------------------------------
   0.16450E-04,       1517  0.25236E-06,       1066

 NO OUTPUT CONTROL FOR STRESS PERIOD        2   TIME STEP      336



          TIME SUMMARY AT END OF TIME STEP       336 IN STRESS PERIOD         2
                    SECONDS     MINUTES      HOURS       DAYS        YEARS
                    -----------------------------------------------------------
   TIME STEP LENGTH  86.400      1.4400     2.40000E-02 1.00000E-03 2.73785E-06
 STRESS PERIOD TIME  29030.      483.84      8.0640     0.33600     9.19918E-04
         TOTAL TIME 1.15430E+05  1923.8      32.064      1.3360     3.65777E-03
1
 ------------------------------------------------------------------------------------------------------------
 
 SOLVING FOR TRANSPORT 

          SEQUENTIAL TRANSPORT ITERATION LOOP NUMBER    1
          -----------------------------------------------

 ------------------------------------------------------------------------------------------------------------------------
     1 CALLS TO SPARSE MATRIX SOLVER PACKAGE IN TRANSPORT TIME STEP     336 STRESS PERIOD       2 SPECIES  1

 TOTAL OF       1OUTER ITERATIONS
  MAXIMUM CHANGE FOR EACH ITERATION:
   MAX. CHANGE        NODE  MAX. CHANGE        NODE  MAX. CHANGE        NODE  MAX. CHANGE        NODE  MAX. CHANGE        NODE
 ------------------------------------------------------------------------------------------------------------------------------------
   0.15311    ,        800
     TRANSPORT SOLUTION COMPLETE FOR COMPONENT SPECIES NUMBER    1
     ------------------------------------------------------------

 TRANSPORT SOLUTION COMPLETE FOR ALL SPECIES, SORTING OUTPUT FOR CONCENTRATIONS AND MASS BALANCE
 ----------------------------------------------------------------------------------------------------
     TRANSPORT OUTPUT FOR COMPONENT SPECIES NUMBER    1
     ------------------------------------------------------------
 -------------------------------------------------------------------------------------
 
 SOLVING FOR HEAD 

 Outer-Iteration  Inner-Iteration  Backtracking  Number of        Incoming       Outgoing      Cutoff     Maximum Head Change      Maximum Head Change
     Number           Count           Flag       Backtracks       Residual       Residual      Residual            Value               Location
        1                             0             0          0.345612E-02     0.345612E-02   -1.00000    
        1               12                                                                                       0.179698E-04               1438           GWF-node number
        2                             0             0          0.635293E-07     0.635293E-07   -1.00000    
        2                1                                                                                      -0.417372E-06               2721           GWF-node number
     2 CALLS TO SPARSE MATRIX SOLVER PACKAGE  IN FLOW TIME STEP     337 STRESS PERIOD       2

 TOTAL OF       2OUTER ITERATIONS
  MAXIMUM CHANGE FOR EACH ITERATION:
   MAX. CHANGE        NODE  MAX. CHANGE        NODE  MAX. CHANGE        NODE  MAX. CHANGE        NODE  MAX. CHANGE        NODE
 ------------------------------------------------------------------------------------------------------------------------------------
   0.17970E-04,       1438 -0.41737E-06,       2721

 NO OUTPUT CONTROL FOR STRESS PERIOD        2   TIME STEP      337



          TIME SUMMARY AT END OF TIME STEP       337 IN STRESS PERIOD         2
                    SECONDS     MINUTES      HOURS       DAYS        YEARS
                    -----------------------------------------------------------
   TIME STEP LENGTH  86.400      1.4400     2.40000E-02 1.00000E-03 2.73785E-06
 STRESS PERIOD TIME  29117.      485.28      8.0880     0.33700     9.22656E-04
         TOTAL TIME 1.15517E+05  1925.3      32.088      1.3370     3.66051E-03
1
 ------------------------------------------------------------------------------------------------------------
 
 SOLVING FOR TRANSPORT 

          SEQUENTIAL TRANSPORT ITERATION LOOP NUMBER    1
          -----------------------------------------------

 ------------------------------------------------------------------------------------------------------------------------
     1 CALLS TO SPARSE MATRIX SOLVER PACKAGE IN TRANSPORT TIME STEP     337 STRESS PERIOD       2 SPECIES  1

 TOTAL OF       1OUTER ITERATIONS
  MAXIMUM CHANGE FOR EACH ITERATION:
   MAX. CHANGE        NODE  MAX. CHANGE        NODE  MAX. CHANGE        NODE  MAX. CHANGE        NODE  MAX. CHANGE        NODE
 ------------------------------------------------------------------------------------------------------------------------------------
  -0.17455    ,       1520
     TRANSPORT SOLUTION COMPLETE FOR COMPONENT SPECIES NUMBER    1
     ------------------------------------------------------------

 TRANSPORT SOLUTION COMPLETE FOR ALL SPECIES, SORTING OUTPUT FOR CONCENTRATIONS AND MASS BALANCE
 ----------------------------------------------------------------------------------------------------
     TRANSPORT OUTPUT FOR COMPONENT SPECIES NUMBER    1
     ------------------------------------------------------------
 -------------------------------------------------------------------------------------
 
 SOLVING FOR HEAD 

 Outer-Iteration  Inner-Iteration  Backtracking  Number of        Incoming       Outgoing      Cutoff     Maximum Head Change      Maximum Head Change
     Number           Count           Flag       Backtracks       Residual       Residual      Residual            Value               Location
        1                             0             0          0.391529E-02     0.391529E-02   -1.00000    
        1                8                                                                                       0.198289E-04               1438           GWF-node number
        2                             0             0          0.290109E-05     0.290109E-05   -1.00000    
        2                3                                                                                       0.459832E-06               3150           GWF-node number
     2 CALLS TO SPARSE MATRIX SOLVER PACKAGE  IN FLOW TIME STEP     338 STRESS PERIOD       2

 TOTAL OF       2OUTER ITERATIONS
  MAXIMUM CHANGE FOR EACH ITERATION:
   MAX. CHANGE        NODE  MAX. CHANGE        NODE  MAX. CHANGE        NODE  MAX. CHANGE        NODE  MAX. CHANGE        NODE
 ------------------------------------------------------------------------------------------------------------------------------------
   0.19829E-04,       1438  0.45983E-06,       3150

 NO OUTPUT CONTROL FOR STRESS PERIOD        2   TIME STEP      338



          TIME SUMMARY AT END OF TIME STEP       338 IN STRESS PERIOD         2
                    SECONDS     MINUTES      HOURS       DAYS        YEARS
                    -----------------------------------------------------------
   TIME STEP LENGTH  86.400      1.4400     2.40000E-02 1.00000E-03 2.73785E-06
 STRESS PERIOD TIME  29203.      486.72      8.1120     0.33800     9.25394E-04
         TOTAL TIME 1.15603E+05  1926.7      32.112      1.3380     3.66324E-03
1
 ------------------------------------------------------------------------------------------------------------
 
 SOLVING FOR TRANSPORT 

          SEQUENTIAL TRANSPORT ITERATION LOOP NUMBER    1
          -----------------------------------------------

 ------------------------------------------------------------------------------------------------------------------------
     1 CALLS TO SPARSE MATRIX SOLVER PACKAGE IN TRANSPORT TIME STEP     338 STRESS PERIOD       2 SPECIES  1

 TOTAL OF       1OUTER ITERATIONS
  MAXIMUM CHANGE FOR EACH ITERATION:
   MAX. CHANGE        NODE  MAX. CHANGE        NODE  MAX. CHANGE        NODE  MAX. CHANGE        NODE  MAX. CHANGE        NODE
 ------------------------------------------------------------------------------------------------------------------------------------
  -0.21138    ,       1520
     TRANSPORT SOLUTION COMPLETE FOR COMPONENT SPECIES NUMBER    1
     ------------------------------------------------------------

 TRANSPORT SOLUTION COMPLETE FOR ALL SPECIES, SORTING OUTPUT FOR CONCENTRATIONS AND MASS BALANCE
 ----------------------------------------------------------------------------------------------------
     TRANSPORT OUTPUT FOR COMPONENT SPECIES NUMBER    1
     ------------------------------------------------------------
 -------------------------------------------------------------------------------------
 
 SOLVING FOR HEAD 

 Outer-Iteration  Inner-Iteration  Backtracking  Number of        Incoming       Outgoing      Cutoff     Maximum Head Change      Maximum Head Change
     Number           Count           Flag       Backtracks       Residual       Residual      Residual            Value               Location
        1                             0             0          0.460215E-02     0.460215E-02   -1.00000    
        1                8                                                                                       0.203345E-04               1438           GWF-node number
        2                             0             0          0.553188E-05     0.553188E-05   -1.00000    
        2                2                                                                                       0.144681E-05               1231           GWF-node number
     2 CALLS TO SPARSE MATRIX SOLVER PACKAGE  IN FLOW TIME STEP     339 STRESS PERIOD       2

 TOTAL OF       2OUTER ITERATIONS
  MAXIMUM CHANGE FOR EACH ITERATION:
   MAX. CHANGE        NODE  MAX. CHANGE        NODE  MAX. CHANGE        NODE  MAX. CHANGE        NODE  MAX. CHANGE        NODE
 ------------------------------------------------------------------------------------------------------------------------------------
   0.20335E-04,       1438  0.14468E-05,       1231

 NO OUTPUT CONTROL FOR STRESS PERIOD        2   TIME STEP      339



          TIME SUMMARY AT END OF TIME STEP       339 IN STRESS PERIOD         2
                    SECONDS     MINUTES      HOURS       DAYS        YEARS
                    -----------------------------------------------------------
   TIME STEP LENGTH  86.400      1.4400     2.40000E-02 1.00000E-03 2.73785E-06
 STRESS PERIOD TIME  29290.      488.16      8.1360     0.33900     9.28131E-04
         TOTAL TIME 1.15690E+05  1928.2      32.136      1.3390     3.66598E-03
1
 ------------------------------------------------------------------------------------------------------------
 
 SOLVING FOR TRANSPORT 

          SEQUENTIAL TRANSPORT ITERATION LOOP NUMBER    1
          -----------------------------------------------

 ------------------------------------------------------------------------------------------------------------------------
     1 CALLS TO SPARSE MATRIX SOLVER PACKAGE IN TRANSPORT TIME STEP     339 STRESS PERIOD       2 SPECIES  1

 TOTAL OF       1OUTER ITERATIONS
  MAXIMUM CHANGE FOR EACH ITERATION:
   MAX. CHANGE        NODE  MAX. CHANGE        NODE  MAX. CHANGE        NODE  MAX. CHANGE        NODE  MAX. CHANGE        NODE
 ------------------------------------------------------------------------------------------------------------------------------------
  -0.24543    ,       1440
     TRANSPORT SOLUTION COMPLETE FOR COMPONENT SPECIES NUMBER    1
     ------------------------------------------------------------

 TRANSPORT SOLUTION COMPLETE FOR ALL SPECIES, SORTING OUTPUT FOR CONCENTRATIONS AND MASS BALANCE
 ----------------------------------------------------------------------------------------------------
     TRANSPORT OUTPUT FOR COMPONENT SPECIES NUMBER    1
     ------------------------------------------------------------
 -------------------------------------------------------------------------------------
 
 SOLVING FOR HEAD 

 Outer-Iteration  Inner-Iteration  Backtracking  Number of        Incoming       Outgoing      Cutoff     Maximum Head Change      Maximum Head Change
     Number           Count           Flag       Backtracks       Residual       Residual      Residual            Value               Location
        1                             0             0          0.629665E-02     0.629665E-02   -1.00000    
        1                9                                                                                       0.225807E-04               1438           GWF-node number
        2                             0             0          0.122606E-05     0.122606E-05   -1.00000    
        2                1                                                                                      -0.916881E-06               1784           GWF-node number
     2 CALLS TO SPARSE MATRIX SOLVER PACKAGE  IN FLOW TIME STEP     340 STRESS PERIOD       2

 TOTAL OF       2OUTER ITERATIONS
  MAXIMUM CHANGE FOR EACH ITERATION:
   MAX. CHANGE        NODE  MAX. CHANGE        NODE  MAX. CHANGE        NODE  MAX. CHANGE        NODE  MAX. CHANGE        NODE
 ------------------------------------------------------------------------------------------------------------------------------------
   0.22581E-04,       1438 -0.91688E-06,       1784

 NO OUTPUT CONTROL FOR STRESS PERIOD        2   TIME STEP      340



          TIME SUMMARY AT END OF TIME STEP       340 IN STRESS PERIOD         2
                    SECONDS     MINUTES      HOURS       DAYS        YEARS
                    -----------------------------------------------------------
   TIME STEP LENGTH  86.400      1.4400     2.40000E-02 1.00000E-03 2.73785E-06
 STRESS PERIOD TIME  29376.      489.60      8.1600     0.34000     9.30869E-04
         TOTAL TIME 1.15776E+05  1929.6      32.160      1.3400     3.66872E-03
1
 ------------------------------------------------------------------------------------------------------------
 
 SOLVING FOR TRANSPORT 

          SEQUENTIAL TRANSPORT ITERATION LOOP NUMBER    1
          -----------------------------------------------

 ------------------------------------------------------------------------------------------------------------------------
     1 CALLS TO SPARSE MATRIX SOLVER PACKAGE IN TRANSPORT TIME STEP     340 STRESS PERIOD       2 SPECIES  1

 TOTAL OF       1OUTER ITERATIONS
  MAXIMUM CHANGE FOR EACH ITERATION:
   MAX. CHANGE        NODE  MAX. CHANGE        NODE  MAX. CHANGE        NODE  MAX. CHANGE        NODE  MAX. CHANGE        NODE
 ------------------------------------------------------------------------------------------------------------------------------------
  -0.30699    ,       1440
     TRANSPORT SOLUTION COMPLETE FOR COMPONENT SPECIES NUMBER    1
     ------------------------------------------------------------

 TRANSPORT SOLUTION COMPLETE FOR ALL SPECIES, SORTING OUTPUT FOR CONCENTRATIONS AND MASS BALANCE
 ----------------------------------------------------------------------------------------------------
     TRANSPORT OUTPUT FOR COMPONENT SPECIES NUMBER    1
     ------------------------------------------------------------
 -------------------------------------------------------------------------------------
 
 SOLVING FOR HEAD 

 Outer-Iteration  Inner-Iteration  Backtracking  Number of        Incoming       Outgoing      Cutoff     Maximum Head Change      Maximum Head Change
     Number           Count           Flag       Backtracks       Residual       Residual      Residual            Value               Location
        1                             0             0          0.823126E-02     0.823126E-02   -1.00000    
        1               10                                                                                       0.235568E-04               1440           GWF-node number
        2                             0             0          0.955645E-06     0.955645E-06   -1.00000    
        2                2                                                                                       0.719629E-06               3125           GWF-node number
     2 CALLS TO SPARSE MATRIX SOLVER PACKAGE  IN FLOW TIME STEP     341 STRESS PERIOD       2

 TOTAL OF       2OUTER ITERATIONS
  MAXIMUM CHANGE FOR EACH ITERATION:
   MAX. CHANGE        NODE  MAX. CHANGE        NODE  MAX. CHANGE        NODE  MAX. CHANGE        NODE  MAX. CHANGE        NODE
 ------------------------------------------------------------------------------------------------------------------------------------
   0.23557E-04,       1440  0.71963E-06,       3125

 NO OUTPUT CONTROL FOR STRESS PERIOD        2   TIME STEP      341



          TIME SUMMARY AT END OF TIME STEP       341 IN STRESS PERIOD         2
                    SECONDS     MINUTES      HOURS       DAYS        YEARS
                    -----------------------------------------------------------
   TIME STEP LENGTH  86.400      1.4400     2.40000E-02 1.00000E-03 2.73785E-06
 STRESS PERIOD TIME  29462.      491.04      8.1840     0.34100     9.33607E-04
         TOTAL TIME 1.15862E+05  1931.0      32.184      1.3410     3.67146E-03
1
 ------------------------------------------------------------------------------------------------------------
 
 SOLVING FOR TRANSPORT 

          SEQUENTIAL TRANSPORT ITERATION LOOP NUMBER    1
          -----------------------------------------------

 ------------------------------------------------------------------------------------------------------------------------
     1 CALLS TO SPARSE MATRIX SOLVER PACKAGE IN TRANSPORT TIME STEP     341 STRESS PERIOD       2 SPECIES  1

 TOTAL OF       1OUTER ITERATIONS
  MAXIMUM CHANGE FOR EACH ITERATION:
   MAX. CHANGE        NODE  MAX. CHANGE        NODE  MAX. CHANGE        NODE  MAX. CHANGE        NODE  MAX. CHANGE        NODE
 ------------------------------------------------------------------------------------------------------------------------------------
  -0.30006    ,       1360
     TRANSPORT SOLUTION COMPLETE FOR COMPONENT SPECIES NUMBER    1
     ------------------------------------------------------------

 TRANSPORT SOLUTION COMPLETE FOR ALL SPECIES, SORTING OUTPUT FOR CONCENTRATIONS AND MASS BALANCE
 ----------------------------------------------------------------------------------------------------
     TRANSPORT OUTPUT FOR COMPONENT SPECIES NUMBER    1
     ------------------------------------------------------------
 -------------------------------------------------------------------------------------
 
 SOLVING FOR HEAD 

 Outer-Iteration  Inner-Iteration  Backtracking  Number of        Incoming       Outgoing      Cutoff     Maximum Head Change      Maximum Head Change
     Number           Count           Flag       Backtracks       Residual       Residual      Residual            Value               Location
        1                             0             0          0.752985E-02     0.752985E-02   -1.00000    
        1                8                                                                                       0.280851E-04               1359           GWF-node number
        2                             0             0          0.696971E-05     0.696971E-05   -1.00000    
        2                3                                                                                       0.441652E-06               1117           GWF-node number
     2 CALLS TO SPARSE MATRIX SOLVER PACKAGE  IN FLOW TIME STEP     342 STRESS PERIOD       2

 TOTAL OF       2OUTER ITERATIONS
  MAXIMUM CHANGE FOR EACH ITERATION:
   MAX. CHANGE        NODE  MAX. CHANGE        NODE  MAX. CHANGE        NODE  MAX. CHANGE        NODE  MAX. CHANGE        NODE
 ------------------------------------------------------------------------------------------------------------------------------------
   0.28085E-04,       1359  0.44165E-06,       1117

 NO OUTPUT CONTROL FOR STRESS PERIOD        2   TIME STEP      342



          TIME SUMMARY AT END OF TIME STEP       342 IN STRESS PERIOD         2
                    SECONDS     MINUTES      HOURS       DAYS        YEARS
                    -----------------------------------------------------------
   TIME STEP LENGTH  86.400      1.4400     2.40000E-02 1.00000E-03 2.73785E-06
 STRESS PERIOD TIME  29549.      492.48      8.2080     0.34200     9.36345E-04
         TOTAL TIME 1.15949E+05  1932.5      32.208      1.3420     3.67420E-03
1
 ------------------------------------------------------------------------------------------------------------
 
 SOLVING FOR TRANSPORT 

          SEQUENTIAL TRANSPORT ITERATION LOOP NUMBER    1
          -----------------------------------------------

 ------------------------------------------------------------------------------------------------------------------------
     1 CALLS TO SPARSE MATRIX SOLVER PACKAGE IN TRANSPORT TIME STEP     342 STRESS PERIOD       2 SPECIES  1

 TOTAL OF       1OUTER ITERATIONS
  MAXIMUM CHANGE FOR EACH ITERATION:
   MAX. CHANGE        NODE  MAX. CHANGE        NODE  MAX. CHANGE        NODE  MAX. CHANGE        NODE  MAX. CHANGE        NODE
 ------------------------------------------------------------------------------------------------------------------------------------
  -0.37207    ,       1360
     TRANSPORT SOLUTION COMPLETE FOR COMPONENT SPECIES NUMBER    1
     ------------------------------------------------------------

 TRANSPORT SOLUTION COMPLETE FOR ALL SPECIES, SORTING OUTPUT FOR CONCENTRATIONS AND MASS BALANCE
 ----------------------------------------------------------------------------------------------------
     TRANSPORT OUTPUT FOR COMPONENT SPECIES NUMBER    1
     ------------------------------------------------------------
 -------------------------------------------------------------------------------------
 
 SOLVING FOR HEAD 

 Outer-Iteration  Inner-Iteration  Backtracking  Number of        Incoming       Outgoing      Cutoff     Maximum Head Change      Maximum Head Change
     Number           Count           Flag       Backtracks       Residual       Residual      Residual            Value               Location
        1                             0             0          0.131574E-01     0.131574E-01   -1.00000    
        1                8                                                                                       0.301334E-04               1360           GWF-node number
        2                             0             0          0.704851E-05     0.704851E-05   -1.00000    
        2                3                                                                                      -0.170691E-05               1365           GWF-node number
     2 CALLS TO SPARSE MATRIX SOLVER PACKAGE  IN FLOW TIME STEP     343 STRESS PERIOD       2

 TOTAL OF       2OUTER ITERATIONS
  MAXIMUM CHANGE FOR EACH ITERATION:
   MAX. CHANGE        NODE  MAX. CHANGE        NODE  MAX. CHANGE        NODE  MAX. CHANGE        NODE  MAX. CHANGE        NODE
 ------------------------------------------------------------------------------------------------------------------------------------
   0.30133E-04,       1360 -0.17069E-05,       1365

 NO OUTPUT CONTROL FOR STRESS PERIOD        2   TIME STEP      343



          TIME SUMMARY AT END OF TIME STEP       343 IN STRESS PERIOD         2
                    SECONDS     MINUTES      HOURS       DAYS        YEARS
                    -----------------------------------------------------------
   TIME STEP LENGTH  86.400      1.4400     2.40000E-02 1.00000E-03 2.73785E-06
 STRESS PERIOD TIME  29635.      493.92      8.2320     0.34300     9.39083E-04
         TOTAL TIME 1.16035E+05  1933.9      32.232      1.3430     3.67693E-03
1
 ------------------------------------------------------------------------------------------------------------
 
 SOLVING FOR TRANSPORT 

          SEQUENTIAL TRANSPORT ITERATION LOOP NUMBER    1
          -----------------------------------------------

 ------------------------------------------------------------------------------------------------------------------------
     1 CALLS TO SPARSE MATRIX SOLVER PACKAGE IN TRANSPORT TIME STEP     343 STRESS PERIOD       2 SPECIES  1

 TOTAL OF       1OUTER ITERATIONS
  MAXIMUM CHANGE FOR EACH ITERATION:
   MAX. CHANGE        NODE  MAX. CHANGE        NODE  MAX. CHANGE        NODE  MAX. CHANGE        NODE  MAX. CHANGE        NODE
 ------------------------------------------------------------------------------------------------------------------------------------
  -0.38359    ,       1360
     TRANSPORT SOLUTION COMPLETE FOR COMPONENT SPECIES NUMBER    1
     ------------------------------------------------------------

 TRANSPORT SOLUTION COMPLETE FOR ALL SPECIES, SORTING OUTPUT FOR CONCENTRATIONS AND MASS BALANCE
 ----------------------------------------------------------------------------------------------------
     TRANSPORT OUTPUT FOR COMPONENT SPECIES NUMBER    1
     ------------------------------------------------------------
 -------------------------------------------------------------------------------------
 
 SOLVING FOR HEAD 

 Outer-Iteration  Inner-Iteration  Backtracking  Number of        Incoming       Outgoing      Cutoff     Maximum Head Change      Maximum Head Change
     Number           Count           Flag       Backtracks       Residual       Residual      Residual            Value               Location
        1                             0             0          0.159347E-01     0.159347E-01   -1.00000    
        1                9                                                                                       0.315764E-04               1360           GWF-node number
        2                             0             0          0.181534E-05     0.181534E-05   -1.00000    
        2                3                                                                                       0.993087E-06               2481           GWF-node number
     2 CALLS TO SPARSE MATRIX SOLVER PACKAGE  IN FLOW TIME STEP     344 STRESS PERIOD       2

 TOTAL OF       2OUTER ITERATIONS
  MAXIMUM CHANGE FOR EACH ITERATION:
   MAX. CHANGE        NODE  MAX. CHANGE        NODE  MAX. CHANGE        NODE  MAX. CHANGE        NODE  MAX. CHANGE        NODE
 ------------------------------------------------------------------------------------------------------------------------------------
   0.31576E-04,       1360  0.99309E-06,       2481

 NO OUTPUT CONTROL FOR STRESS PERIOD        2   TIME STEP      344



          TIME SUMMARY AT END OF TIME STEP       344 IN STRESS PERIOD         2
                    SECONDS     MINUTES      HOURS       DAYS        YEARS
                    -----------------------------------------------------------
   TIME STEP LENGTH  86.400      1.4400     2.40000E-02 1.00000E-03 2.73785E-06
 STRESS PERIOD TIME  29722.      495.36      8.2560     0.34400     9.41821E-04
         TOTAL TIME 1.16122E+05  1935.4      32.256      1.3440     3.67967E-03
1
 ------------------------------------------------------------------------------------------------------------
 
 SOLVING FOR TRANSPORT 

          SEQUENTIAL TRANSPORT ITERATION LOOP NUMBER    1
          -----------------------------------------------

 ------------------------------------------------------------------------------------------------------------------------
     1 CALLS TO SPARSE MATRIX SOLVER PACKAGE IN TRANSPORT TIME STEP     344 STRESS PERIOD       2 SPECIES  1

 TOTAL OF       1OUTER ITERATIONS
  MAXIMUM CHANGE FOR EACH ITERATION:
   MAX. CHANGE        NODE  MAX. CHANGE        NODE  MAX. CHANGE        NODE  MAX. CHANGE        NODE  MAX. CHANGE        NODE
 ------------------------------------------------------------------------------------------------------------------------------------
  -0.30354    ,       1280
     TRANSPORT SOLUTION COMPLETE FOR COMPONENT SPECIES NUMBER    1
     ------------------------------------------------------------

 TRANSPORT SOLUTION COMPLETE FOR ALL SPECIES, SORTING OUTPUT FOR CONCENTRATIONS AND MASS BALANCE
 ----------------------------------------------------------------------------------------------------
     TRANSPORT OUTPUT FOR COMPONENT SPECIES NUMBER    1
     ------------------------------------------------------------
 -------------------------------------------------------------------------------------
 
 SOLVING FOR HEAD 

 Outer-Iteration  Inner-Iteration  Backtracking  Number of        Incoming       Outgoing      Cutoff     Maximum Head Change      Maximum Head Change
     Number           Count           Flag       Backtracks       Residual       Residual      Residual            Value               Location
        1                             0             0          0.832430E-02     0.832430E-02   -1.00000    
        1               11                                                                                       0.255960E-04               1279           GWF-node number
        2                             0             0          0.190213E-06     0.190213E-06   -1.00000    
        2                1                                                                                      -0.460973E-06               2026           GWF-node number
     2 CALLS TO SPARSE MATRIX SOLVER PACKAGE  IN FLOW TIME STEP     345 STRESS PERIOD       2

 TOTAL OF       2OUTER ITERATIONS
  MAXIMUM CHANGE FOR EACH ITERATION:
   MAX. CHANGE        NODE  MAX. CHANGE        NODE  MAX. CHANGE        NODE  MAX. CHANGE        NODE  MAX. CHANGE        NODE
 ------------------------------------------------------------------------------------------------------------------------------------
   0.25596E-04,       1279 -0.46097E-06,       2026

 NO OUTPUT CONTROL FOR STRESS PERIOD        2   TIME STEP      345



          TIME SUMMARY AT END OF TIME STEP       345 IN STRESS PERIOD         2
                    SECONDS     MINUTES      HOURS       DAYS        YEARS
                    -----------------------------------------------------------
   TIME STEP LENGTH  86.400      1.4400     2.40000E-02 1.00000E-03 2.73785E-06
 STRESS PERIOD TIME  29808.      496.80      8.2800     0.34500     9.44559E-04
         TOTAL TIME 1.16208E+05  1936.8      32.280      1.3450     3.68241E-03
1
 ------------------------------------------------------------------------------------------------------------
 
 SOLVING FOR TRANSPORT 

          SEQUENTIAL TRANSPORT ITERATION LOOP NUMBER    1
          -----------------------------------------------

 ------------------------------------------------------------------------------------------------------------------------
     1 CALLS TO SPARSE MATRIX SOLVER PACKAGE IN TRANSPORT TIME STEP     345 STRESS PERIOD       2 SPECIES  1

 TOTAL OF       1OUTER ITERATIONS
  MAXIMUM CHANGE FOR EACH ITERATION:
   MAX. CHANGE        NODE  MAX. CHANGE        NODE  MAX. CHANGE        NODE  MAX. CHANGE        NODE  MAX. CHANGE        NODE
 ------------------------------------------------------------------------------------------------------------------------------------
  -0.38513    ,       1280
     TRANSPORT SOLUTION COMPLETE FOR COMPONENT SPECIES NUMBER    1
     ------------------------------------------------------------

 TRANSPORT SOLUTION COMPLETE FOR ALL SPECIES, SORTING OUTPUT FOR CONCENTRATIONS AND MASS BALANCE
 ----------------------------------------------------------------------------------------------------
     TRANSPORT OUTPUT FOR COMPONENT SPECIES NUMBER    1
     ------------------------------------------------------------
 -------------------------------------------------------------------------------------
 
 SOLVING FOR HEAD 

 Outer-Iteration  Inner-Iteration  Backtracking  Number of        Incoming       Outgoing      Cutoff     Maximum Head Change      Maximum Head Change
     Number           Count           Flag       Backtracks       Residual       Residual      Residual            Value               Location
        1                             0             0          0.165573E-01     0.165573E-01   -1.00000    
        1               10                                                                                       0.312205E-04               1280           GWF-node number
        2                             0             0          0.298360E-05     0.298360E-05   -1.00000    
        2                1                                                                                       0.917119E-06               3126           GWF-node number
     2 CALLS TO SPARSE MATRIX SOLVER PACKAGE  IN FLOW TIME STEP     346 STRESS PERIOD       2

 TOTAL OF       2OUTER ITERATIONS
  MAXIMUM CHANGE FOR EACH ITERATION:
   MAX. CHANGE        NODE  MAX. CHANGE        NODE  MAX. CHANGE        NODE  MAX. CHANGE        NODE  MAX. CHANGE        NODE
 ------------------------------------------------------------------------------------------------------------------------------------
   0.31220E-04,       1280  0.91712E-06,       3126

 NO OUTPUT CONTROL FOR STRESS PERIOD        2   TIME STEP      346



          TIME SUMMARY AT END OF TIME STEP       346 IN STRESS PERIOD         2
                    SECONDS     MINUTES      HOURS       DAYS        YEARS
                    -----------------------------------------------------------
   TIME STEP LENGTH  86.400      1.4400     2.40000E-02 1.00000E-03 2.73785E-06
 STRESS PERIOD TIME  29894.      498.24      8.3040     0.34600     9.47296E-04
         TOTAL TIME 1.16294E+05  1938.2      32.304      1.3460     3.68515E-03
1
 ------------------------------------------------------------------------------------------------------------
 
 SOLVING FOR TRANSPORT 

          SEQUENTIAL TRANSPORT ITERATION LOOP NUMBER    1
          -----------------------------------------------

 ------------------------------------------------------------------------------------------------------------------------
     1 CALLS TO SPARSE MATRIX SOLVER PACKAGE IN TRANSPORT TIME STEP     346 STRESS PERIOD       2 SPECIES  1

 TOTAL OF       1OUTER ITERATIONS
  MAXIMUM CHANGE FOR EACH ITERATION:
   MAX. CHANGE        NODE  MAX. CHANGE        NODE  MAX. CHANGE        NODE  MAX. CHANGE        NODE  MAX. CHANGE        NODE
 ------------------------------------------------------------------------------------------------------------------------------------
  -0.54784    ,       1280
     TRANSPORT SOLUTION COMPLETE FOR COMPONENT SPECIES NUMBER    1
     ------------------------------------------------------------

 TRANSPORT SOLUTION COMPLETE FOR ALL SPECIES, SORTING OUTPUT FOR CONCENTRATIONS AND MASS BALANCE
 ----------------------------------------------------------------------------------------------------
     TRANSPORT OUTPUT FOR COMPONENT SPECIES NUMBER    1
     ------------------------------------------------------------
 -------------------------------------------------------------------------------------
 
 SOLVING FOR HEAD 

 Outer-Iteration  Inner-Iteration  Backtracking  Number of        Incoming       Outgoing      Cutoff     Maximum Head Change      Maximum Head Change
     Number           Count           Flag       Backtracks       Residual       Residual      Residual            Value               Location
        1                             0             0          0.506279E-01     0.506279E-01   -1.00000    
        1               13                                                                                       0.496959E-04               1280           GWF-node number
        2                             0             0          0.360327E-06     0.360327E-06   -1.00000    
        2                2                                                                                      -0.304271E-06               3127           GWF-node number
     2 CALLS TO SPARSE MATRIX SOLVER PACKAGE  IN FLOW TIME STEP     347 STRESS PERIOD       2

 TOTAL OF       2OUTER ITERATIONS
  MAXIMUM CHANGE FOR EACH ITERATION:
   MAX. CHANGE        NODE  MAX. CHANGE        NODE  MAX. CHANGE        NODE  MAX. CHANGE        NODE  MAX. CHANGE        NODE
 ------------------------------------------------------------------------------------------------------------------------------------
   0.49696E-04,       1280 -0.30427E-06,       3127

 NO OUTPUT CONTROL FOR STRESS PERIOD        2   TIME STEP      347



          TIME SUMMARY AT END OF TIME STEP       347 IN STRESS PERIOD         2
                    SECONDS     MINUTES      HOURS       DAYS        YEARS
                    -----------------------------------------------------------
   TIME STEP LENGTH  86.400      1.4400     2.40000E-02 1.00000E-03 2.73785E-06
 STRESS PERIOD TIME  29981.      499.68      8.3280     0.34700     9.50034E-04
         TOTAL TIME 1.16381E+05  1939.7      32.328      1.3470     3.68789E-03
1
 ------------------------------------------------------------------------------------------------------------
 
 SOLVING FOR TRANSPORT 

          SEQUENTIAL TRANSPORT ITERATION LOOP NUMBER    1
          -----------------------------------------------

 ------------------------------------------------------------------------------------------------------------------------
     1 CALLS TO SPARSE MATRIX SOLVER PACKAGE IN TRANSPORT TIME STEP     347 STRESS PERIOD       2 SPECIES  1

 TOTAL OF       1OUTER ITERATIONS
  MAXIMUM CHANGE FOR EACH ITERATION:
   MAX. CHANGE        NODE  MAX. CHANGE        NODE  MAX. CHANGE        NODE  MAX. CHANGE        NODE  MAX. CHANGE        NODE
 ------------------------------------------------------------------------------------------------------------------------------------
  -0.44156    ,       1200
     TRANSPORT SOLUTION COMPLETE FOR COMPONENT SPECIES NUMBER    1
     ------------------------------------------------------------

 TRANSPORT SOLUTION COMPLETE FOR ALL SPECIES, SORTING OUTPUT FOR CONCENTRATIONS AND MASS BALANCE
 ----------------------------------------------------------------------------------------------------
     TRANSPORT OUTPUT FOR COMPONENT SPECIES NUMBER    1
     ------------------------------------------------------------
 -------------------------------------------------------------------------------------
 
 SOLVING FOR HEAD 

 Outer-Iteration  Inner-Iteration  Backtracking  Number of        Incoming       Outgoing      Cutoff     Maximum Head Change      Maximum Head Change
     Number           Count           Flag       Backtracks       Residual       Residual      Residual            Value               Location
        1                             0             0          0.225366E-01     0.225366E-01   -1.00000    
        1               12                                                                                       0.263616E-04               1200           GWF-node number
        2                             0             0          0.553418E-06     0.553418E-06   -1.00000    
        2                1                                                                                       0.463938E-06               2254           GWF-node number
     2 CALLS TO SPARSE MATRIX SOLVER PACKAGE  IN FLOW TIME STEP     348 STRESS PERIOD       2

 TOTAL OF       2OUTER ITERATIONS
  MAXIMUM CHANGE FOR EACH ITERATION:
   MAX. CHANGE        NODE  MAX. CHANGE        NODE  MAX. CHANGE        NODE  MAX. CHANGE        NODE  MAX. CHANGE        NODE
 ------------------------------------------------------------------------------------------------------------------------------------
   0.26362E-04,       1200  0.46394E-06,       2254

 NO OUTPUT CONTROL FOR STRESS PERIOD        2   TIME STEP      348



          TIME SUMMARY AT END OF TIME STEP       348 IN STRESS PERIOD         2
                    SECONDS     MINUTES      HOURS       DAYS        YEARS
                    -----------------------------------------------------------
   TIME STEP LENGTH  86.400      1.4400     2.40000E-02 1.00000E-03 2.73785E-06
 STRESS PERIOD TIME  30067.      501.12      8.3520     0.34800     9.52772E-04
         TOTAL TIME 1.16467E+05  1941.1      32.352      1.3480     3.69062E-03
1
 ------------------------------------------------------------------------------------------------------------
 
 SOLVING FOR TRANSPORT 

          SEQUENTIAL TRANSPORT ITERATION LOOP NUMBER    1
          -----------------------------------------------

 ------------------------------------------------------------------------------------------------------------------------
     1 CALLS TO SPARSE MATRIX SOLVER PACKAGE IN TRANSPORT TIME STEP     348 STRESS PERIOD       2 SPECIES  1

 TOTAL OF       1OUTER ITERATIONS
  MAXIMUM CHANGE FOR EACH ITERATION:
   MAX. CHANGE        NODE  MAX. CHANGE        NODE  MAX. CHANGE        NODE  MAX. CHANGE        NODE  MAX. CHANGE        NODE
 ------------------------------------------------------------------------------------------------------------------------------------
  -0.50656    ,       1200
     TRANSPORT SOLUTION COMPLETE FOR COMPONENT SPECIES NUMBER    1
     ------------------------------------------------------------

 TRANSPORT SOLUTION COMPLETE FOR ALL SPECIES, SORTING OUTPUT FOR CONCENTRATIONS AND MASS BALANCE
 ----------------------------------------------------------------------------------------------------
     TRANSPORT OUTPUT FOR COMPONENT SPECIES NUMBER    1
     ------------------------------------------------------------
 -------------------------------------------------------------------------------------
 
 SOLVING FOR HEAD 

 Outer-Iteration  Inner-Iteration  Backtracking  Number of        Incoming       Outgoing      Cutoff     Maximum Head Change      Maximum Head Change
     Number           Count           Flag       Backtracks       Residual       Residual      Residual            Value               Location
        1                             0             0          0.425535E-01     0.425535E-01   -1.00000    
        1               10                                                                                       0.433472E-04               1200           GWF-node number
        2                             0             0          0.299079E-05     0.299079E-05   -1.00000    
        2                3                                                                                       0.780265E-06               1937           GWF-node number
     2 CALLS TO SPARSE MATRIX SOLVER PACKAGE  IN FLOW TIME STEP     349 STRESS PERIOD       2

 TOTAL OF       2OUTER ITERATIONS
  MAXIMUM CHANGE FOR EACH ITERATION:
   MAX. CHANGE        NODE  MAX. CHANGE        NODE  MAX. CHANGE        NODE  MAX. CHANGE        NODE  MAX. CHANGE        NODE
 ------------------------------------------------------------------------------------------------------------------------------------
   0.43347E-04,       1200  0.78026E-06,       1937

 NO OUTPUT CONTROL FOR STRESS PERIOD        2   TIME STEP      349



          TIME SUMMARY AT END OF TIME STEP       349 IN STRESS PERIOD         2
                    SECONDS     MINUTES      HOURS       DAYS        YEARS
                    -----------------------------------------------------------
   TIME STEP LENGTH  86.400      1.4400     2.40000E-02 1.00000E-03 2.73785E-06
 STRESS PERIOD TIME  30154.      502.56      8.3760     0.34900     9.55510E-04
         TOTAL TIME 1.16554E+05  1942.6      32.376      1.3490     3.69336E-03
1
 ------------------------------------------------------------------------------------------------------------
 
 SOLVING FOR TRANSPORT 

          SEQUENTIAL TRANSPORT ITERATION LOOP NUMBER    1
          -----------------------------------------------

 ------------------------------------------------------------------------------------------------------------------------
     1 CALLS TO SPARSE MATRIX SOLVER PACKAGE IN TRANSPORT TIME STEP     349 STRESS PERIOD       2 SPECIES  1

 TOTAL OF       1OUTER ITERATIONS
  MAXIMUM CHANGE FOR EACH ITERATION:
   MAX. CHANGE        NODE  MAX. CHANGE        NODE  MAX. CHANGE        NODE  MAX. CHANGE        NODE  MAX. CHANGE        NODE
 ------------------------------------------------------------------------------------------------------------------------------------
  -0.53775    ,       1200
     TRANSPORT SOLUTION COMPLETE FOR COMPONENT SPECIES NUMBER    1
     ------------------------------------------------------------

 TRANSPORT SOLUTION COMPLETE FOR ALL SPECIES, SORTING OUTPUT FOR CONCENTRATIONS AND MASS BALANCE
 ----------------------------------------------------------------------------------------------------
     TRANSPORT OUTPUT FOR COMPONENT SPECIES NUMBER    1
     ------------------------------------------------------------
 -------------------------------------------------------------------------------------
 
 SOLVING FOR HEAD 

 Outer-Iteration  Inner-Iteration  Backtracking  Number of        Incoming       Outgoing      Cutoff     Maximum Head Change      Maximum Head Change
     Number           Count           Flag       Backtracks       Residual       Residual      Residual            Value               Location
        1                             0             0          0.781436E-01     0.781436E-01   -1.00000    
        1               12                                                                                       0.533140E-04               1200           GWF-node number
        2                             0             0          0.215904E-05     0.215904E-05   -1.00000    
        2                3                                                                                      -0.456664E-06                749           GWF-node number
     2 CALLS TO SPARSE MATRIX SOLVER PACKAGE  IN FLOW TIME STEP     350 STRESS PERIOD       2

 TOTAL OF       2OUTER ITERATIONS
  MAXIMUM CHANGE FOR EACH ITERATION:
   MAX. CHANGE        NODE  MAX. CHANGE        NODE  MAX. CHANGE        NODE  MAX. CHANGE        NODE  MAX. CHANGE        NODE
 ------------------------------------------------------------------------------------------------------------------------------------
   0.53314E-04,       1200 -0.45666E-06,        749

 NO OUTPUT CONTROL FOR STRESS PERIOD        2   TIME STEP      350



          TIME SUMMARY AT END OF TIME STEP       350 IN STRESS PERIOD         2
                    SECONDS     MINUTES      HOURS       DAYS        YEARS
                    -----------------------------------------------------------
   TIME STEP LENGTH  86.400      1.4400     2.40000E-02 1.00000E-03 2.73785E-06
 STRESS PERIOD TIME  30240.      504.00      8.4000     0.35000     9.58248E-04
         TOTAL TIME 1.16640E+05  1944.0      32.400      1.3500     3.69610E-03
1
 ------------------------------------------------------------------------------------------------------------
 
 SOLVING FOR TRANSPORT 

          SEQUENTIAL TRANSPORT ITERATION LOOP NUMBER    1
          -----------------------------------------------

 ------------------------------------------------------------------------------------------------------------------------
     1 CALLS TO SPARSE MATRIX SOLVER PACKAGE IN TRANSPORT TIME STEP     350 STRESS PERIOD       2 SPECIES  1

 TOTAL OF       1OUTER ITERATIONS
  MAXIMUM CHANGE FOR EACH ITERATION:
   MAX. CHANGE        NODE  MAX. CHANGE        NODE  MAX. CHANGE        NODE  MAX. CHANGE        NODE  MAX. CHANGE        NODE
 ------------------------------------------------------------------------------------------------------------------------------------
   0.37948    ,       1440
     TRANSPORT SOLUTION COMPLETE FOR COMPONENT SPECIES NUMBER    1
     ------------------------------------------------------------

 TRANSPORT SOLUTION COMPLETE FOR ALL SPECIES, SORTING OUTPUT FOR CONCENTRATIONS AND MASS BALANCE
 ----------------------------------------------------------------------------------------------------
     TRANSPORT OUTPUT FOR COMPONENT SPECIES NUMBER    1
     ------------------------------------------------------------
 -------------------------------------------------------------------------------------
 
 SOLVING FOR HEAD 

 Outer-Iteration  Inner-Iteration  Backtracking  Number of        Incoming       Outgoing      Cutoff     Maximum Head Change      Maximum Head Change
     Number           Count           Flag       Backtracks       Residual       Residual      Residual            Value               Location
        1                             0             0          0.121180E-01     0.121180E-01   -1.00000    
        1               12                                                                                      -0.282134E-04               1440           GWF-node number
        2                             0             0          0.765670E-07     0.765670E-07   -1.00000    
        2                1                                                                                      -0.235975E-06               2089           GWF-node number
     2 CALLS TO SPARSE MATRIX SOLVER PACKAGE  IN FLOW TIME STEP     351 STRESS PERIOD       2

 TOTAL OF       2OUTER ITERATIONS
  MAXIMUM CHANGE FOR EACH ITERATION:
   MAX. CHANGE        NODE  MAX. CHANGE        NODE  MAX. CHANGE        NODE  MAX. CHANGE        NODE  MAX. CHANGE        NODE
 ------------------------------------------------------------------------------------------------------------------------------------
  -0.28213E-04,       1440 -0.23598E-06,       2089

 NO OUTPUT CONTROL FOR STRESS PERIOD        2   TIME STEP      351



          TIME SUMMARY AT END OF TIME STEP       351 IN STRESS PERIOD         2
                    SECONDS     MINUTES      HOURS       DAYS        YEARS
                    -----------------------------------------------------------
   TIME STEP LENGTH  86.400      1.4400     2.40000E-02 1.00000E-03 2.73785E-06
 STRESS PERIOD TIME  30326.      505.44      8.4240     0.35100     9.60986E-04
         TOTAL TIME 1.16726E+05  1945.4      32.424      1.3510     3.69884E-03
1
 ------------------------------------------------------------------------------------------------------------
 
 SOLVING FOR TRANSPORT 

          SEQUENTIAL TRANSPORT ITERATION LOOP NUMBER    1
          -----------------------------------------------

 ------------------------------------------------------------------------------------------------------------------------
     1 CALLS TO SPARSE MATRIX SOLVER PACKAGE IN TRANSPORT TIME STEP     351 STRESS PERIOD       2 SPECIES  1

 TOTAL OF       1OUTER ITERATIONS
  MAXIMUM CHANGE FOR EACH ITERATION:
   MAX. CHANGE        NODE  MAX. CHANGE        NODE  MAX. CHANGE        NODE  MAX. CHANGE        NODE  MAX. CHANGE        NODE
 ------------------------------------------------------------------------------------------------------------------------------------
   0.38792    ,       1440
     TRANSPORT SOLUTION COMPLETE FOR COMPONENT SPECIES NUMBER    1
     ------------------------------------------------------------

 TRANSPORT SOLUTION COMPLETE FOR ALL SPECIES, SORTING OUTPUT FOR CONCENTRATIONS AND MASS BALANCE
 ----------------------------------------------------------------------------------------------------
     TRANSPORT OUTPUT FOR COMPONENT SPECIES NUMBER    1
     ------------------------------------------------------------
 -------------------------------------------------------------------------------------
 
 SOLVING FOR HEAD 

 Outer-Iteration  Inner-Iteration  Backtracking  Number of        Incoming       Outgoing      Cutoff     Maximum Head Change      Maximum Head Change
     Number           Count           Flag       Backtracks       Residual       Residual      Residual            Value               Location
        1                             0             0          0.877942E-02     0.877942E-02   -1.00000    
        1               12                                                                                      -0.258236E-04               1440           GWF-node number
        2                             0             0          0.594092E-07     0.594092E-07   -1.00000    
        2                1                                                                                       0.257138E-06               3126           GWF-node number
     2 CALLS TO SPARSE MATRIX SOLVER PACKAGE  IN FLOW TIME STEP     352 STRESS PERIOD       2

 TOTAL OF       2OUTER ITERATIONS
  MAXIMUM CHANGE FOR EACH ITERATION:
   MAX. CHANGE        NODE  MAX. CHANGE        NODE  MAX. CHANGE        NODE  MAX. CHANGE        NODE  MAX. CHANGE        NODE
 ------------------------------------------------------------------------------------------------------------------------------------
  -0.25824E-04,       1440  0.25714E-06,       3126

 NO OUTPUT CONTROL FOR STRESS PERIOD        2   TIME STEP      352



          TIME SUMMARY AT END OF TIME STEP       352 IN STRESS PERIOD         2
                    SECONDS     MINUTES      HOURS       DAYS        YEARS
                    -----------------------------------------------------------
   TIME STEP LENGTH  86.400      1.4400     2.40000E-02 1.00000E-03 2.73785E-06
 STRESS PERIOD TIME  30413.      506.88      8.4480     0.35200     9.63723E-04
         TOTAL TIME 1.16813E+05  1946.9      32.448      1.3520     3.70157E-03
1
 ------------------------------------------------------------------------------------------------------------
 
 SOLVING FOR TRANSPORT 

          SEQUENTIAL TRANSPORT ITERATION LOOP NUMBER    1
          -----------------------------------------------

 ------------------------------------------------------------------------------------------------------------------------
     1 CALLS TO SPARSE MATRIX SOLVER PACKAGE IN TRANSPORT TIME STEP     352 STRESS PERIOD       2 SPECIES  1

 TOTAL OF       1OUTER ITERATIONS
  MAXIMUM CHANGE FOR EACH ITERATION:
   MAX. CHANGE        NODE  MAX. CHANGE        NODE  MAX. CHANGE        NODE  MAX. CHANGE        NODE  MAX. CHANGE        NODE
 ------------------------------------------------------------------------------------------------------------------------------------
   0.45374    ,       1360
     TRANSPORT SOLUTION COMPLETE FOR COMPONENT SPECIES NUMBER    1
     ------------------------------------------------------------

 TRANSPORT SOLUTION COMPLETE FOR ALL SPECIES, SORTING OUTPUT FOR CONCENTRATIONS AND MASS BALANCE
 ----------------------------------------------------------------------------------------------------
     TRANSPORT OUTPUT FOR COMPONENT SPECIES NUMBER    1
     ------------------------------------------------------------
 -------------------------------------------------------------------------------------
 
 SOLVING FOR HEAD 

 Outer-Iteration  Inner-Iteration  Backtracking  Number of        Incoming       Outgoing      Cutoff     Maximum Head Change      Maximum Head Change
     Number           Count           Flag       Backtracks       Residual       Residual      Residual            Value               Location
        1                             0             0          0.102733E-01     0.102733E-01   -1.00000    
        1               11                                                                                      -0.267976E-04               1360           GWF-node number
        2                             0             0          0.253396E-06     0.253396E-06   -1.00000    
        2                1                                                                                      -0.673627E-06               3123           GWF-node number
     2 CALLS TO SPARSE MATRIX SOLVER PACKAGE  IN FLOW TIME STEP     353 STRESS PERIOD       2

 TOTAL OF       2OUTER ITERATIONS
  MAXIMUM CHANGE FOR EACH ITERATION:
   MAX. CHANGE        NODE  MAX. CHANGE        NODE  MAX. CHANGE        NODE  MAX. CHANGE        NODE  MAX. CHANGE        NODE
 ------------------------------------------------------------------------------------------------------------------------------------
  -0.26798E-04,       1360 -0.67363E-06,       3123

 NO OUTPUT CONTROL FOR STRESS PERIOD        2   TIME STEP      353



          TIME SUMMARY AT END OF TIME STEP       353 IN STRESS PERIOD         2
                    SECONDS     MINUTES      HOURS       DAYS        YEARS
                    -----------------------------------------------------------
   TIME STEP LENGTH  86.400      1.4400     2.40000E-02 1.00000E-03 2.73785E-06
 STRESS PERIOD TIME  30499.      508.32      8.4720     0.35300     9.66461E-04
         TOTAL TIME 1.16899E+05  1948.3      32.472      1.3530     3.70431E-03
1
 ------------------------------------------------------------------------------------------------------------
 
 SOLVING FOR TRANSPORT 

          SEQUENTIAL TRANSPORT ITERATION LOOP NUMBER    1
          -----------------------------------------------

 ------------------------------------------------------------------------------------------------------------------------
     1 CALLS TO SPARSE MATRIX SOLVER PACKAGE IN TRANSPORT TIME STEP     353 STRESS PERIOD       2 SPECIES  1

 TOTAL OF       1OUTER ITERATIONS
  MAXIMUM CHANGE FOR EACH ITERATION:
   MAX. CHANGE        NODE  MAX. CHANGE        NODE  MAX. CHANGE        NODE  MAX. CHANGE        NODE  MAX. CHANGE        NODE
 ------------------------------------------------------------------------------------------------------------------------------------
   0.40415    ,       1280
     TRANSPORT SOLUTION COMPLETE FOR COMPONENT SPECIES NUMBER    1
     ------------------------------------------------------------

 TRANSPORT SOLUTION COMPLETE FOR ALL SPECIES, SORTING OUTPUT FOR CONCENTRATIONS AND MASS BALANCE
 ----------------------------------------------------------------------------------------------------
     TRANSPORT OUTPUT FOR COMPONENT SPECIES NUMBER    1
     ------------------------------------------------------------
 -------------------------------------------------------------------------------------
 
 SOLVING FOR HEAD 

 Outer-Iteration  Inner-Iteration  Backtracking  Number of        Incoming       Outgoing      Cutoff     Maximum Head Change      Maximum Head Change
     Number           Count           Flag       Backtracks       Residual       Residual      Residual            Value               Location
        1                             0             0          0.864414E-02     0.864414E-02   -1.00000    
        1               11                                                                                      -0.236394E-04               1360           GWF-node number
        2                             0             0          0.772055E-06     0.772055E-06   -1.00000    
        2                1                                                                                      -0.912180E-06               3123           GWF-node number
     2 CALLS TO SPARSE MATRIX SOLVER PACKAGE  IN FLOW TIME STEP     354 STRESS PERIOD       2

 TOTAL OF       2OUTER ITERATIONS
  MAXIMUM CHANGE FOR EACH ITERATION:
   MAX. CHANGE        NODE  MAX. CHANGE        NODE  MAX. CHANGE        NODE  MAX. CHANGE        NODE  MAX. CHANGE        NODE
 ------------------------------------------------------------------------------------------------------------------------------------
  -0.23639E-04,       1360 -0.91218E-06,       3123

 NO OUTPUT CONTROL FOR STRESS PERIOD        2   TIME STEP      354



          TIME SUMMARY AT END OF TIME STEP       354 IN STRESS PERIOD         2
                    SECONDS     MINUTES      HOURS       DAYS        YEARS
                    -----------------------------------------------------------
   TIME STEP LENGTH  86.400      1.4400     2.40000E-02 1.00000E-03 2.73785E-06
 STRESS PERIOD TIME  30586.      509.76      8.4960     0.35400     9.69199E-04
         TOTAL TIME 1.16986E+05  1949.8      32.496      1.3540     3.70705E-03
1
 ------------------------------------------------------------------------------------------------------------
 
 SOLVING FOR TRANSPORT 

          SEQUENTIAL TRANSPORT ITERATION LOOP NUMBER    1
          -----------------------------------------------

 ------------------------------------------------------------------------------------------------------------------------
     1 CALLS TO SPARSE MATRIX SOLVER PACKAGE IN TRANSPORT TIME STEP     354 STRESS PERIOD       2 SPECIES  1

 TOTAL OF       1OUTER ITERATIONS
  MAXIMUM CHANGE FOR EACH ITERATION:
   MAX. CHANGE        NODE  MAX. CHANGE        NODE  MAX. CHANGE        NODE  MAX. CHANGE        NODE  MAX. CHANGE        NODE
 ------------------------------------------------------------------------------------------------------------------------------------
   0.40205    ,       1280
     TRANSPORT SOLUTION COMPLETE FOR COMPONENT SPECIES NUMBER    1
     ------------------------------------------------------------

 TRANSPORT SOLUTION COMPLETE FOR ALL SPECIES, SORTING OUTPUT FOR CONCENTRATIONS AND MASS BALANCE
 ----------------------------------------------------------------------------------------------------
     TRANSPORT OUTPUT FOR COMPONENT SPECIES NUMBER    1
     ------------------------------------------------------------
 -------------------------------------------------------------------------------------
 
 SOLVING FOR HEAD 

 Outer-Iteration  Inner-Iteration  Backtracking  Number of        Incoming       Outgoing      Cutoff     Maximum Head Change      Maximum Head Change
     Number           Count           Flag       Backtracks       Residual       Residual      Residual            Value               Location
        1                             0             0          0.747852E-02     0.747852E-02   -1.00000    
        1               12                                                                                       0.196877E-04                790           GWF-node number
        2                             0             0          0.469645E-07     0.469645E-07   -1.00000    
        2                1                                                                                      -0.211426E-06               3162           GWF-node number
     2 CALLS TO SPARSE MATRIX SOLVER PACKAGE  IN FLOW TIME STEP     355 STRESS PERIOD       2

 TOTAL OF       2OUTER ITERATIONS
  MAXIMUM CHANGE FOR EACH ITERATION:
   MAX. CHANGE        NODE  MAX. CHANGE        NODE  MAX. CHANGE        NODE  MAX. CHANGE        NODE  MAX. CHANGE        NODE
 ------------------------------------------------------------------------------------------------------------------------------------
   0.19688E-04,        790 -0.21143E-06,       3162

 NO OUTPUT CONTROL FOR STRESS PERIOD        2   TIME STEP      355



          TIME SUMMARY AT END OF TIME STEP       355 IN STRESS PERIOD         2
                    SECONDS     MINUTES      HOURS       DAYS        YEARS
                    -----------------------------------------------------------
   TIME STEP LENGTH  86.400      1.4400     2.40000E-02 1.00000E-03 2.73785E-06
 STRESS PERIOD TIME  30672.      511.20      8.5200     0.35500     9.71937E-04
         TOTAL TIME 1.17072E+05  1951.2      32.520      1.3550     3.70979E-03
1
 ------------------------------------------------------------------------------------------------------------
 
 SOLVING FOR TRANSPORT 

          SEQUENTIAL TRANSPORT ITERATION LOOP NUMBER    1
          -----------------------------------------------

 ------------------------------------------------------------------------------------------------------------------------
     1 CALLS TO SPARSE MATRIX SOLVER PACKAGE IN TRANSPORT TIME STEP     355 STRESS PERIOD       2 SPECIES  1

 TOTAL OF       1OUTER ITERATIONS
  MAXIMUM CHANGE FOR EACH ITERATION:
   MAX. CHANGE        NODE  MAX. CHANGE        NODE  MAX. CHANGE        NODE  MAX. CHANGE        NODE  MAX. CHANGE        NODE
 ------------------------------------------------------------------------------------------------------------------------------------
   0.37554    ,       1280
     TRANSPORT SOLUTION COMPLETE FOR COMPONENT SPECIES NUMBER    1
     ------------------------------------------------------------

 TRANSPORT SOLUTION COMPLETE FOR ALL SPECIES, SORTING OUTPUT FOR CONCENTRATIONS AND MASS BALANCE
 ----------------------------------------------------------------------------------------------------
     TRANSPORT OUTPUT FOR COMPONENT SPECIES NUMBER    1
     ------------------------------------------------------------
 -------------------------------------------------------------------------------------
 
 SOLVING FOR HEAD 

 Outer-Iteration  Inner-Iteration  Backtracking  Number of        Incoming       Outgoing      Cutoff     Maximum Head Change      Maximum Head Change
     Number           Count           Flag       Backtracks       Residual       Residual      Residual            Value               Location
        1                             0             0          0.821930E-02     0.821930E-02   -1.00000    
        1                9                                                                                      -0.217075E-04               1280           GWF-node number
        2                             0             0          0.302725E-05     0.302725E-05   -1.00000    
        2                3                                                                                       0.624240E-06                423           GWF-node number
     2 CALLS TO SPARSE MATRIX SOLVER PACKAGE  IN FLOW TIME STEP     356 STRESS PERIOD       2

 TOTAL OF       2OUTER ITERATIONS
  MAXIMUM CHANGE FOR EACH ITERATION:
   MAX. CHANGE        NODE  MAX. CHANGE        NODE  MAX. CHANGE        NODE  MAX. CHANGE        NODE  MAX. CHANGE        NODE
 ------------------------------------------------------------------------------------------------------------------------------------
  -0.21708E-04,       1280  0.62424E-06,        423

 NO OUTPUT CONTROL FOR STRESS PERIOD        2   TIME STEP      356



          TIME SUMMARY AT END OF TIME STEP       356 IN STRESS PERIOD         2
                    SECONDS     MINUTES      HOURS       DAYS        YEARS
                    -----------------------------------------------------------
   TIME STEP LENGTH  86.400      1.4400     2.40000E-02 1.00000E-03 2.73785E-06
 STRESS PERIOD TIME  30758.      512.64      8.5440     0.35600     9.74675E-04
         TOTAL TIME 1.17158E+05  1952.6      32.544      1.3560     3.71253E-03
1
 ------------------------------------------------------------------------------------------------------------
 
 SOLVING FOR TRANSPORT 

          SEQUENTIAL TRANSPORT ITERATION LOOP NUMBER    1
          -----------------------------------------------

 ------------------------------------------------------------------------------------------------------------------------
     1 CALLS TO SPARSE MATRIX SOLVER PACKAGE IN TRANSPORT TIME STEP     356 STRESS PERIOD       2 SPECIES  1

 TOTAL OF       1OUTER ITERATIONS
  MAXIMUM CHANGE FOR EACH ITERATION:
   MAX. CHANGE        NODE  MAX. CHANGE        NODE  MAX. CHANGE        NODE  MAX. CHANGE        NODE  MAX. CHANGE        NODE
 ------------------------------------------------------------------------------------------------------------------------------------
   0.31580    ,       1040
     TRANSPORT SOLUTION COMPLETE FOR COMPONENT SPECIES NUMBER    1
     ------------------------------------------------------------

 TRANSPORT SOLUTION COMPLETE FOR ALL SPECIES, SORTING OUTPUT FOR CONCENTRATIONS AND MASS BALANCE
 ----------------------------------------------------------------------------------------------------
     TRANSPORT OUTPUT FOR COMPONENT SPECIES NUMBER    1
     ------------------------------------------------------------
 -------------------------------------------------------------------------------------
 
 SOLVING FOR HEAD 

 Outer-Iteration  Inner-Iteration  Backtracking  Number of        Incoming       Outgoing      Cutoff     Maximum Head Change      Maximum Head Change
     Number           Count           Flag       Backtracks       Residual       Residual      Residual            Value               Location
        1                             0             0          0.621402E-02     0.621402E-02   -1.00000    
        1                8                                                                                      -0.174775E-04               1280           GWF-node number
        2                             0             0          0.280708E-05     0.280708E-05   -1.00000    
        2                2                                                                                       0.202916E-05               2801           GWF-node number
     2 CALLS TO SPARSE MATRIX SOLVER PACKAGE  IN FLOW TIME STEP     357 STRESS PERIOD       2

 TOTAL OF       2OUTER ITERATIONS
  MAXIMUM CHANGE FOR EACH ITERATION:
   MAX. CHANGE        NODE  MAX. CHANGE        NODE  MAX. CHANGE        NODE  MAX. CHANGE        NODE  MAX. CHANGE        NODE
 ------------------------------------------------------------------------------------------------------------------------------------
  -0.17477E-04,       1280  0.20292E-05,       2801

 NO OUTPUT CONTROL FOR STRESS PERIOD        2   TIME STEP      357



          TIME SUMMARY AT END OF TIME STEP       357 IN STRESS PERIOD         2
                    SECONDS     MINUTES      HOURS       DAYS        YEARS
                    -----------------------------------------------------------
   TIME STEP LENGTH  86.400      1.4400     2.40000E-02 1.00000E-03 2.73785E-06
 STRESS PERIOD TIME  30845.      514.08      8.5680     0.35700     9.77413E-04
         TOTAL TIME 1.17245E+05  1954.1      32.568      1.3570     3.71526E-03
1
 ------------------------------------------------------------------------------------------------------------
 
 SOLVING FOR TRANSPORT 

          SEQUENTIAL TRANSPORT ITERATION LOOP NUMBER    1
          -----------------------------------------------

 ------------------------------------------------------------------------------------------------------------------------
     1 CALLS TO SPARSE MATRIX SOLVER PACKAGE IN TRANSPORT TIME STEP     357 STRESS PERIOD       2 SPECIES  1

 TOTAL OF       1OUTER ITERATIONS
  MAXIMUM CHANGE FOR EACH ITERATION:
   MAX. CHANGE        NODE  MAX. CHANGE        NODE  MAX. CHANGE        NODE  MAX. CHANGE        NODE  MAX. CHANGE        NODE
 ------------------------------------------------------------------------------------------------------------------------------------
   0.25817    ,        960
     TRANSPORT SOLUTION COMPLETE FOR COMPONENT SPECIES NUMBER    1
     ------------------------------------------------------------

 TRANSPORT SOLUTION COMPLETE FOR ALL SPECIES, SORTING OUTPUT FOR CONCENTRATIONS AND MASS BALANCE
 ----------------------------------------------------------------------------------------------------
     TRANSPORT OUTPUT FOR COMPONENT SPECIES NUMBER    1
     ------------------------------------------------------------
 -------------------------------------------------------------------------------------
 
 SOLVING FOR HEAD 

 Outer-Iteration  Inner-Iteration  Backtracking  Number of        Incoming       Outgoing      Cutoff     Maximum Head Change      Maximum Head Change
     Number           Count           Flag       Backtracks       Residual       Residual      Residual            Value               Location
        1                             0             0          0.390585E-02     0.390585E-02   -1.00000    
        1                9                                                                                       0.155904E-04               1596           GWF-node number
        2                             0             0          0.317109E-05     0.317109E-05   -1.00000    
        2                2                                                                                       0.117693E-05               2900           GWF-node number
     2 CALLS TO SPARSE MATRIX SOLVER PACKAGE  IN FLOW TIME STEP     358 STRESS PERIOD       2

 TOTAL OF       2OUTER ITERATIONS
  MAXIMUM CHANGE FOR EACH ITERATION:
   MAX. CHANGE        NODE  MAX. CHANGE        NODE  MAX. CHANGE        NODE  MAX. CHANGE        NODE  MAX. CHANGE        NODE
 ------------------------------------------------------------------------------------------------------------------------------------
   0.15590E-04,       1596  0.11769E-05,       2900

 NO OUTPUT CONTROL FOR STRESS PERIOD        2   TIME STEP      358



          TIME SUMMARY AT END OF TIME STEP       358 IN STRESS PERIOD         2
                    SECONDS     MINUTES      HOURS       DAYS        YEARS
                    -----------------------------------------------------------
   TIME STEP LENGTH  86.400      1.4400     2.40000E-02 1.00000E-03 2.73785E-06
 STRESS PERIOD TIME  30931.      515.52      8.5920     0.35800     9.80150E-04
         TOTAL TIME 1.17331E+05  1955.5      32.592      1.3580     3.71800E-03
1
 ------------------------------------------------------------------------------------------------------------
 
 SOLVING FOR TRANSPORT 

          SEQUENTIAL TRANSPORT ITERATION LOOP NUMBER    1
          -----------------------------------------------

 ------------------------------------------------------------------------------------------------------------------------
     1 CALLS TO SPARSE MATRIX SOLVER PACKAGE IN TRANSPORT TIME STEP     358 STRESS PERIOD       2 SPECIES  1

 TOTAL OF       1OUTER ITERATIONS
  MAXIMUM CHANGE FOR EACH ITERATION:
   MAX. CHANGE        NODE  MAX. CHANGE        NODE  MAX. CHANGE        NODE  MAX. CHANGE        NODE  MAX. CHANGE        NODE
 ------------------------------------------------------------------------------------------------------------------------------------
   0.20058    ,        880
     TRANSPORT SOLUTION COMPLETE FOR COMPONENT SPECIES NUMBER    1
     ------------------------------------------------------------

 TRANSPORT SOLUTION COMPLETE FOR ALL SPECIES, SORTING OUTPUT FOR CONCENTRATIONS AND MASS BALANCE
 ----------------------------------------------------------------------------------------------------
     TRANSPORT OUTPUT FOR COMPONENT SPECIES NUMBER    1
     ------------------------------------------------------------
 -------------------------------------------------------------------------------------
 
 SOLVING FOR HEAD 

 Outer-Iteration  Inner-Iteration  Backtracking  Number of        Incoming       Outgoing      Cutoff     Maximum Head Change      Maximum Head Change
     Number           Count           Flag       Backtracks       Residual       Residual      Residual            Value               Location
        1                             0             0          0.285217E-02     0.285217E-02   -1.00000    
        1               10                                                                                       0.187680E-04               1517           GWF-node number
        2                             0             0          0.230686E-06     0.230686E-06   -1.00000    
        2                1                                                                                      -0.419789E-06               2738           GWF-node number
     2 CALLS TO SPARSE MATRIX SOLVER PACKAGE  IN FLOW TIME STEP     359 STRESS PERIOD       2

 TOTAL OF       2OUTER ITERATIONS
  MAXIMUM CHANGE FOR EACH ITERATION:
   MAX. CHANGE        NODE  MAX. CHANGE        NODE  MAX. CHANGE        NODE  MAX. CHANGE        NODE  MAX. CHANGE        NODE
 ------------------------------------------------------------------------------------------------------------------------------------
   0.18768E-04,       1517 -0.41979E-06,       2738

 NO OUTPUT CONTROL FOR STRESS PERIOD        2   TIME STEP      359



          TIME SUMMARY AT END OF TIME STEP       359 IN STRESS PERIOD         2
                    SECONDS     MINUTES      HOURS       DAYS        YEARS
                    -----------------------------------------------------------
   TIME STEP LENGTH  86.400      1.4400     2.40000E-02 1.00000E-03 2.73785E-06
 STRESS PERIOD TIME  31018.      516.96      8.6160     0.35900     9.82888E-04
         TOTAL TIME 1.17418E+05  1957.0      32.616      1.3590     3.72074E-03
1
 ------------------------------------------------------------------------------------------------------------
 
 SOLVING FOR TRANSPORT 

          SEQUENTIAL TRANSPORT ITERATION LOOP NUMBER    1
          -----------------------------------------------

 ------------------------------------------------------------------------------------------------------------------------
     1 CALLS TO SPARSE MATRIX SOLVER PACKAGE IN TRANSPORT TIME STEP     359 STRESS PERIOD       2 SPECIES  1

 TOTAL OF       1OUTER ITERATIONS
  MAXIMUM CHANGE FOR EACH ITERATION:
   MAX. CHANGE        NODE  MAX. CHANGE        NODE  MAX. CHANGE        NODE  MAX. CHANGE        NODE  MAX. CHANGE        NODE
 ------------------------------------------------------------------------------------------------------------------------------------
   0.15155    ,        880
     TRANSPORT SOLUTION COMPLETE FOR COMPONENT SPECIES NUMBER    1
     ------------------------------------------------------------

 TRANSPORT SOLUTION COMPLETE FOR ALL SPECIES, SORTING OUTPUT FOR CONCENTRATIONS AND MASS BALANCE
 ----------------------------------------------------------------------------------------------------
     TRANSPORT OUTPUT FOR COMPONENT SPECIES NUMBER    1
     ------------------------------------------------------------
 -------------------------------------------------------------------------------------
 
 SOLVING FOR HEAD 

 Outer-Iteration  Inner-Iteration  Backtracking  Number of        Incoming       Outgoing      Cutoff     Maximum Head Change      Maximum Head Change
     Number           Count           Flag       Backtracks       Residual       Residual      Residual            Value               Location
        1                             0             0          0.349235E-02     0.349235E-02   -1.00000    
        1               11                                                                                       0.176678E-04               1438           GWF-node number
        2                             0             0          0.220046E-06     0.220046E-06   -1.00000    
        2                1                                                                                      -0.811106E-06               2250           GWF-node number
     2 CALLS TO SPARSE MATRIX SOLVER PACKAGE  IN FLOW TIME STEP     360 STRESS PERIOD       2

 TOTAL OF       2OUTER ITERATIONS
  MAXIMUM CHANGE FOR EACH ITERATION:
   MAX. CHANGE        NODE  MAX. CHANGE        NODE  MAX. CHANGE        NODE  MAX. CHANGE        NODE  MAX. CHANGE        NODE
 ------------------------------------------------------------------------------------------------------------------------------------
   0.17668E-04,       1438 -0.81111E-06,       2250

 NO OUTPUT CONTROL FOR STRESS PERIOD        2   TIME STEP      360



          TIME SUMMARY AT END OF TIME STEP       360 IN STRESS PERIOD         2
                    SECONDS     MINUTES      HOURS       DAYS        YEARS
                    -----------------------------------------------------------
   TIME STEP LENGTH  86.400      1.4400     2.40000E-02 1.00000E-03 2.73785E-06
 STRESS PERIOD TIME  31104.      518.40      8.6400     0.36000     9.85626E-04
         TOTAL TIME 1.17504E+05  1958.4      32.640      1.3600     3.72348E-03
1
 ------------------------------------------------------------------------------------------------------------
 
 SOLVING FOR TRANSPORT 

          SEQUENTIAL TRANSPORT ITERATION LOOP NUMBER    1
          -----------------------------------------------

 ------------------------------------------------------------------------------------------------------------------------
     1 CALLS TO SPARSE MATRIX SOLVER PACKAGE IN TRANSPORT TIME STEP     360 STRESS PERIOD       2 SPECIES  1

 TOTAL OF       1OUTER ITERATIONS
  MAXIMUM CHANGE FOR EACH ITERATION:
   MAX. CHANGE        NODE  MAX. CHANGE        NODE  MAX. CHANGE        NODE  MAX. CHANGE        NODE  MAX. CHANGE        NODE
 ------------------------------------------------------------------------------------------------------------------------------------
  -0.17726    ,       1520
     TRANSPORT SOLUTION COMPLETE FOR COMPONENT SPECIES NUMBER    1
     ------------------------------------------------------------

 TRANSPORT SOLUTION COMPLETE FOR ALL SPECIES, SORTING OUTPUT FOR CONCENTRATIONS AND MASS BALANCE
 ----------------------------------------------------------------------------------------------------
     TRANSPORT OUTPUT FOR COMPONENT SPECIES NUMBER    1
     ------------------------------------------------------------
 -------------------------------------------------------------------------------------
 
 SOLVING FOR HEAD 

 Outer-Iteration  Inner-Iteration  Backtracking  Number of        Incoming       Outgoing      Cutoff     Maximum Head Change      Maximum Head Change
     Number           Count           Flag       Backtracks       Residual       Residual      Residual            Value               Location
        1                             0             0          0.418328E-02     0.418328E-02   -1.00000    
        1                9                                                                                       0.182042E-04               1438           GWF-node number
        2                             0             0          0.112855E-05     0.112855E-05   -1.00000    
        2                1                                                                                      -0.975171E-06               2801           GWF-node number
     2 CALLS TO SPARSE MATRIX SOLVER PACKAGE  IN FLOW TIME STEP     361 STRESS PERIOD       2

 TOTAL OF       2OUTER ITERATIONS
  MAXIMUM CHANGE FOR EACH ITERATION:
   MAX. CHANGE        NODE  MAX. CHANGE        NODE  MAX. CHANGE        NODE  MAX. CHANGE        NODE  MAX. CHANGE        NODE
 ------------------------------------------------------------------------------------------------------------------------------------
   0.18204E-04,       1438 -0.97517E-06,       2801

 NO OUTPUT CONTROL FOR STRESS PERIOD        2   TIME STEP      361



          TIME SUMMARY AT END OF TIME STEP       361 IN STRESS PERIOD         2
                    SECONDS     MINUTES      HOURS       DAYS        YEARS
                    -----------------------------------------------------------
   TIME STEP LENGTH  86.400      1.4400     2.40000E-02 1.00000E-03 2.73785E-06
 STRESS PERIOD TIME  31190.      519.84      8.6640     0.36100     9.88364E-04
         TOTAL TIME 1.17590E+05  1959.8      32.664      1.3610     3.72621E-03
1
 ------------------------------------------------------------------------------------------------------------
 
 SOLVING FOR TRANSPORT 

          SEQUENTIAL TRANSPORT ITERATION LOOP NUMBER    1
          -----------------------------------------------

 ------------------------------------------------------------------------------------------------------------------------
     1 CALLS TO SPARSE MATRIX SOLVER PACKAGE IN TRANSPORT TIME STEP     361 STRESS PERIOD       2 SPECIES  1

 TOTAL OF       1OUTER ITERATIONS
  MAXIMUM CHANGE FOR EACH ITERATION:
   MAX. CHANGE        NODE  MAX. CHANGE        NODE  MAX. CHANGE        NODE  MAX. CHANGE        NODE  MAX. CHANGE        NODE
 ------------------------------------------------------------------------------------------------------------------------------------
  -0.21215    ,       1520
     TRANSPORT SOLUTION COMPLETE FOR COMPONENT SPECIES NUMBER    1
     ------------------------------------------------------------

 TRANSPORT SOLUTION COMPLETE FOR ALL SPECIES, SORTING OUTPUT FOR CONCENTRATIONS AND MASS BALANCE
 ----------------------------------------------------------------------------------------------------
     TRANSPORT OUTPUT FOR COMPONENT SPECIES NUMBER    1
     ------------------------------------------------------------
 -------------------------------------------------------------------------------------
 
 SOLVING FOR HEAD 

 Outer-Iteration  Inner-Iteration  Backtracking  Number of        Incoming       Outgoing      Cutoff     Maximum Head Change      Maximum Head Change
     Number           Count           Flag       Backtracks       Residual       Residual      Residual            Value               Location
        1                             0             0          0.543129E-02     0.543129E-02   -1.00000    
        1                9                                                                                       0.208445E-04               1438           GWF-node number
        2                             0             0          0.681821E-06     0.681821E-06   -1.00000    
        2                2                                                                                       0.107543E-05               2961           GWF-node number
     2 CALLS TO SPARSE MATRIX SOLVER PACKAGE  IN FLOW TIME STEP     362 STRESS PERIOD       2

 TOTAL OF       2OUTER ITERATIONS
  MAXIMUM CHANGE FOR EACH ITERATION:
   MAX. CHANGE        NODE  MAX. CHANGE        NODE  MAX. CHANGE        NODE  MAX. CHANGE        NODE  MAX. CHANGE        NODE
 ------------------------------------------------------------------------------------------------------------------------------------
   0.20845E-04,       1438  0.10754E-05,       2961

 NO OUTPUT CONTROL FOR STRESS PERIOD        2   TIME STEP      362



          TIME SUMMARY AT END OF TIME STEP       362 IN STRESS PERIOD         2
                    SECONDS     MINUTES      HOURS       DAYS        YEARS
                    -----------------------------------------------------------
   TIME STEP LENGTH  86.400      1.4400     2.40000E-02 1.00000E-03 2.73785E-06
 STRESS PERIOD TIME  31277.      521.28      8.6880     0.36200     9.91102E-04
         TOTAL TIME 1.17677E+05  1961.3      32.688      1.3620     3.72895E-03
1
 ------------------------------------------------------------------------------------------------------------
 
 SOLVING FOR TRANSPORT 

          SEQUENTIAL TRANSPORT ITERATION LOOP NUMBER    1
          -----------------------------------------------

 ------------------------------------------------------------------------------------------------------------------------
     1 CALLS TO SPARSE MATRIX SOLVER PACKAGE IN TRANSPORT TIME STEP     362 STRESS PERIOD       2 SPECIES  1

 TOTAL OF       1OUTER ITERATIONS
  MAXIMUM CHANGE FOR EACH ITERATION:
   MAX. CHANGE        NODE  MAX. CHANGE        NODE  MAX. CHANGE        NODE  MAX. CHANGE        NODE  MAX. CHANGE        NODE
 ------------------------------------------------------------------------------------------------------------------------------------
  -0.26072    ,       1440
     TRANSPORT SOLUTION COMPLETE FOR COMPONENT SPECIES NUMBER    1
     ------------------------------------------------------------

 TRANSPORT SOLUTION COMPLETE FOR ALL SPECIES, SORTING OUTPUT FOR CONCENTRATIONS AND MASS BALANCE
 ----------------------------------------------------------------------------------------------------
     TRANSPORT OUTPUT FOR COMPONENT SPECIES NUMBER    1
     ------------------------------------------------------------
 -------------------------------------------------------------------------------------
 
 SOLVING FOR HEAD 

 Outer-Iteration  Inner-Iteration  Backtracking  Number of        Incoming       Outgoing      Cutoff     Maximum Head Change      Maximum Head Change
     Number           Count           Flag       Backtracks       Residual       Residual      Residual            Value               Location
        1                             0             0          0.561421E-02     0.561421E-02   -1.00000    
        1                9                                                                                       0.201899E-04               1438           GWF-node number
        2                             0             0          0.429097E-05     0.429097E-05   -1.00000    
        2                2                                                                                      -0.152772E-05               2401           GWF-node number
     2 CALLS TO SPARSE MATRIX SOLVER PACKAGE  IN FLOW TIME STEP     363 STRESS PERIOD       2

 TOTAL OF       2OUTER ITERATIONS
  MAXIMUM CHANGE FOR EACH ITERATION:
   MAX. CHANGE        NODE  MAX. CHANGE        NODE  MAX. CHANGE        NODE  MAX. CHANGE        NODE  MAX. CHANGE        NODE
 ------------------------------------------------------------------------------------------------------------------------------------
   0.20190E-04,       1438 -0.15277E-05,       2401

 NO OUTPUT CONTROL FOR STRESS PERIOD        2   TIME STEP      363



          TIME SUMMARY AT END OF TIME STEP       363 IN STRESS PERIOD         2
                    SECONDS     MINUTES      HOURS       DAYS        YEARS
                    -----------------------------------------------------------
   TIME STEP LENGTH  86.400      1.4400     2.40000E-02 1.00000E-03 2.73785E-06
 STRESS PERIOD TIME  31363.      522.72      8.7120     0.36300     9.93840E-04
         TOTAL TIME 1.17763E+05  1962.7      32.712      1.3630     3.73169E-03
1
 ------------------------------------------------------------------------------------------------------------
 
 SOLVING FOR TRANSPORT 

          SEQUENTIAL TRANSPORT ITERATION LOOP NUMBER    1
          -----------------------------------------------

 ------------------------------------------------------------------------------------------------------------------------
     1 CALLS TO SPARSE MATRIX SOLVER PACKAGE IN TRANSPORT TIME STEP     363 STRESS PERIOD       2 SPECIES  1

 TOTAL OF       1OUTER ITERATIONS
  MAXIMUM CHANGE FOR EACH ITERATION:
   MAX. CHANGE        NODE  MAX. CHANGE        NODE  MAX. CHANGE        NODE  MAX. CHANGE        NODE  MAX. CHANGE        NODE
 ------------------------------------------------------------------------------------------------------------------------------------
  -0.32166    ,       1440
     TRANSPORT SOLUTION COMPLETE FOR COMPONENT SPECIES NUMBER    1
     ------------------------------------------------------------

 TRANSPORT SOLUTION COMPLETE FOR ALL SPECIES, SORTING OUTPUT FOR CONCENTRATIONS AND MASS BALANCE
 ----------------------------------------------------------------------------------------------------
     TRANSPORT OUTPUT FOR COMPONENT SPECIES NUMBER    1
     ------------------------------------------------------------
 -------------------------------------------------------------------------------------
 
 SOLVING FOR HEAD 

 Outer-Iteration  Inner-Iteration  Backtracking  Number of        Incoming       Outgoing      Cutoff     Maximum Head Change      Maximum Head Change
     Number           Count           Flag       Backtracks       Residual       Residual      Residual            Value               Location
        1                             0             0          0.916688E-02     0.916688E-02   -1.00000    
        1               11                                                                                       0.263161E-04               1359           GWF-node number
        2                             0             0          0.595633E-05     0.595633E-05   -1.00000    
        2                4                                                                                      -0.632472E-06               1636           GWF-node number
     2 CALLS TO SPARSE MATRIX SOLVER PACKAGE  IN FLOW TIME STEP     364 STRESS PERIOD       2

 TOTAL OF       2OUTER ITERATIONS
  MAXIMUM CHANGE FOR EACH ITERATION:
   MAX. CHANGE        NODE  MAX. CHANGE        NODE  MAX. CHANGE        NODE  MAX. CHANGE        NODE  MAX. CHANGE        NODE
 ------------------------------------------------------------------------------------------------------------------------------------
   0.26316E-04,       1359 -0.63247E-06,       1636

 NO OUTPUT CONTROL FOR STRESS PERIOD        2   TIME STEP      364



          TIME SUMMARY AT END OF TIME STEP       364 IN STRESS PERIOD         2
                    SECONDS     MINUTES      HOURS       DAYS        YEARS
                    -----------------------------------------------------------
   TIME STEP LENGTH  86.400      1.4400     2.40000E-02 1.00000E-03 2.73785E-06
 STRESS PERIOD TIME  31450.      524.16      8.7360     0.36400     9.96578E-04
         TOTAL TIME 1.17850E+05  1964.2      32.736      1.3640     3.73443E-03
1
 ------------------------------------------------------------------------------------------------------------
 
 SOLVING FOR TRANSPORT 

          SEQUENTIAL TRANSPORT ITERATION LOOP NUMBER    1
          -----------------------------------------------

 ------------------------------------------------------------------------------------------------------------------------
     1 CALLS TO SPARSE MATRIX SOLVER PACKAGE IN TRANSPORT TIME STEP     364 STRESS PERIOD       2 SPECIES  1

 TOTAL OF       1OUTER ITERATIONS
  MAXIMUM CHANGE FOR EACH ITERATION:
   MAX. CHANGE        NODE  MAX. CHANGE        NODE  MAX. CHANGE        NODE  MAX. CHANGE        NODE  MAX. CHANGE        NODE
 ------------------------------------------------------------------------------------------------------------------------------------
  -0.30231    ,       1360
     TRANSPORT SOLUTION COMPLETE FOR COMPONENT SPECIES NUMBER    1
     ------------------------------------------------------------

 TRANSPORT SOLUTION COMPLETE FOR ALL SPECIES, SORTING OUTPUT FOR CONCENTRATIONS AND MASS BALANCE
 ----------------------------------------------------------------------------------------------------
     TRANSPORT OUTPUT FOR COMPONENT SPECIES NUMBER    1
     ------------------------------------------------------------
 -------------------------------------------------------------------------------------
 
 SOLVING FOR HEAD 

 Outer-Iteration  Inner-Iteration  Backtracking  Number of        Incoming       Outgoing      Cutoff     Maximum Head Change      Maximum Head Change
     Number           Count           Flag       Backtracks       Residual       Residual      Residual            Value               Location
        1                             0             0          0.768131E-02     0.768131E-02   -1.00000    
        1               11                                                                                       0.285182E-04               1359           GWF-node number
        2                             0             0          0.304719E-06     0.304719E-06   -1.00000    
        2                1                                                                                       0.424735E-06               2611           GWF-node number
     2 CALLS TO SPARSE MATRIX SOLVER PACKAGE  IN FLOW TIME STEP     365 STRESS PERIOD       2

 TOTAL OF       2OUTER ITERATIONS
  MAXIMUM CHANGE FOR EACH ITERATION:
   MAX. CHANGE        NODE  MAX. CHANGE        NODE  MAX. CHANGE        NODE  MAX. CHANGE        NODE  MAX. CHANGE        NODE
 ------------------------------------------------------------------------------------------------------------------------------------
   0.28518E-04,       1359  0.42474E-06,       2611

 NO OUTPUT CONTROL FOR STRESS PERIOD        2   TIME STEP      365



          TIME SUMMARY AT END OF TIME STEP       365 IN STRESS PERIOD         2
                    SECONDS     MINUTES      HOURS       DAYS        YEARS
                    -----------------------------------------------------------
   TIME STEP LENGTH  86.400      1.4400     2.40000E-02 1.00000E-03 2.73785E-06
 STRESS PERIOD TIME  31536.      525.60      8.7600     0.36500     9.99316E-04
         TOTAL TIME 1.17936E+05  1965.6      32.760      1.3650     3.73717E-03
1
 ------------------------------------------------------------------------------------------------------------
 
 SOLVING FOR TRANSPORT 

          SEQUENTIAL TRANSPORT ITERATION LOOP NUMBER    1
          -----------------------------------------------

 ------------------------------------------------------------------------------------------------------------------------
     1 CALLS TO SPARSE MATRIX SOLVER PACKAGE IN TRANSPORT TIME STEP     365 STRESS PERIOD       2 SPECIES  1

 TOTAL OF       1OUTER ITERATIONS
  MAXIMUM CHANGE FOR EACH ITERATION:
   MAX. CHANGE        NODE  MAX. CHANGE        NODE  MAX. CHANGE        NODE  MAX. CHANGE        NODE  MAX. CHANGE        NODE
 ------------------------------------------------------------------------------------------------------------------------------------
  -0.38581    ,       1360
     TRANSPORT SOLUTION COMPLETE FOR COMPONENT SPECIES NUMBER    1
     ------------------------------------------------------------

 TRANSPORT SOLUTION COMPLETE FOR ALL SPECIES, SORTING OUTPUT FOR CONCENTRATIONS AND MASS BALANCE
 ----------------------------------------------------------------------------------------------------
     TRANSPORT OUTPUT FOR COMPONENT SPECIES NUMBER    1
     ------------------------------------------------------------
 -------------------------------------------------------------------------------------
 
 SOLVING FOR HEAD 

 Outer-Iteration  Inner-Iteration  Backtracking  Number of        Incoming       Outgoing      Cutoff     Maximum Head Change      Maximum Head Change
     Number           Count           Flag       Backtracks       Residual       Residual      Residual            Value               Location
        1                             0             0          0.150467E-01     0.150467E-01   -1.00000    
        1               11                                                                                       0.318973E-04               1360           GWF-node number
        2                             0             0          0.376749E-06     0.376749E-06   -1.00000    
        2                1                                                                                      -0.263650E-06               2242           GWF-node number
     2 CALLS TO SPARSE MATRIX SOLVER PACKAGE  IN FLOW TIME STEP     366 STRESS PERIOD       2

 TOTAL OF       2OUTER ITERATIONS
  MAXIMUM CHANGE FOR EACH ITERATION:
   MAX. CHANGE        NODE  MAX. CHANGE        NODE  MAX. CHANGE        NODE  MAX. CHANGE        NODE  MAX. CHANGE        NODE
 ------------------------------------------------------------------------------------------------------------------------------------
   0.31897E-04,       1360 -0.26365E-06,       2242

 NO OUTPUT CONTROL FOR STRESS PERIOD        2   TIME STEP      366



          TIME SUMMARY AT END OF TIME STEP       366 IN STRESS PERIOD         2
                    SECONDS     MINUTES      HOURS       DAYS        YEARS
                    -----------------------------------------------------------
   TIME STEP LENGTH  86.400      1.4400     2.40000E-02 1.00000E-03 2.73785E-06
 STRESS PERIOD TIME  31622.      527.04      8.7840     0.36600     1.00205E-03
         TOTAL TIME 1.18022E+05  1967.0      32.784      1.3660     3.73990E-03
1
 ------------------------------------------------------------------------------------------------------------
 
 SOLVING FOR TRANSPORT 

          SEQUENTIAL TRANSPORT ITERATION LOOP NUMBER    1
          -----------------------------------------------

 ------------------------------------------------------------------------------------------------------------------------
     1 CALLS TO SPARSE MATRIX SOLVER PACKAGE IN TRANSPORT TIME STEP     366 STRESS PERIOD       2 SPECIES  1

 TOTAL OF       1OUTER ITERATIONS
  MAXIMUM CHANGE FOR EACH ITERATION:
   MAX. CHANGE        NODE  MAX. CHANGE        NODE  MAX. CHANGE        NODE  MAX. CHANGE        NODE  MAX. CHANGE        NODE
 ------------------------------------------------------------------------------------------------------------------------------------
  -0.38316    ,       1360
     TRANSPORT SOLUTION COMPLETE FOR COMPONENT SPECIES NUMBER    1
     ------------------------------------------------------------

 TRANSPORT SOLUTION COMPLETE FOR ALL SPECIES, SORTING OUTPUT FOR CONCENTRATIONS AND MASS BALANCE
 ----------------------------------------------------------------------------------------------------
     TRANSPORT OUTPUT FOR COMPONENT SPECIES NUMBER    1
     ------------------------------------------------------------
 -------------------------------------------------------------------------------------
 
 SOLVING FOR HEAD 

 Outer-Iteration  Inner-Iteration  Backtracking  Number of        Incoming       Outgoing      Cutoff     Maximum Head Change      Maximum Head Change
     Number           Count           Flag       Backtracks       Residual       Residual      Residual            Value               Location
        1                             0             0          0.163154E-01     0.163154E-01   -1.00000    
        1               11                                                                                       0.317201E-04               1360           GWF-node number
        2                             0             0          0.355010E-06     0.355010E-06   -1.00000    
        2                1                                                                                       0.290024E-06               2974           GWF-node number
     2 CALLS TO SPARSE MATRIX SOLVER PACKAGE  IN FLOW TIME STEP     367 STRESS PERIOD       2

 TOTAL OF       2OUTER ITERATIONS
  MAXIMUM CHANGE FOR EACH ITERATION:
   MAX. CHANGE        NODE  MAX. CHANGE        NODE  MAX. CHANGE        NODE  MAX. CHANGE        NODE  MAX. CHANGE        NODE
 ------------------------------------------------------------------------------------------------------------------------------------
   0.31720E-04,       1360  0.29002E-06,       2974

 NO OUTPUT CONTROL FOR STRESS PERIOD        2   TIME STEP      367



          TIME SUMMARY AT END OF TIME STEP       367 IN STRESS PERIOD         2
                    SECONDS     MINUTES      HOURS       DAYS        YEARS
                    -----------------------------------------------------------
   TIME STEP LENGTH  86.400      1.4400     2.40000E-02 1.00000E-03 2.73785E-06
 STRESS PERIOD TIME  31709.      528.48      8.8080     0.36700     1.00479E-03
         TOTAL TIME 1.18109E+05  1968.5      32.808      1.3670     3.74264E-03
1
 ------------------------------------------------------------------------------------------------------------
 
 SOLVING FOR TRANSPORT 

          SEQUENTIAL TRANSPORT ITERATION LOOP NUMBER    1
          -----------------------------------------------

 ------------------------------------------------------------------------------------------------------------------------
     1 CALLS TO SPARSE MATRIX SOLVER PACKAGE IN TRANSPORT TIME STEP     367 STRESS PERIOD       2 SPECIES  1

 TOTAL OF       1OUTER ITERATIONS
  MAXIMUM CHANGE FOR EACH ITERATION:
   MAX. CHANGE        NODE  MAX. CHANGE        NODE  MAX. CHANGE        NODE  MAX. CHANGE        NODE  MAX. CHANGE        NODE
 ------------------------------------------------------------------------------------------------------------------------------------
  -0.30860    ,       1280
     TRANSPORT SOLUTION COMPLETE FOR COMPONENT SPECIES NUMBER    1
     ------------------------------------------------------------

 TRANSPORT SOLUTION COMPLETE FOR ALL SPECIES, SORTING OUTPUT FOR CONCENTRATIONS AND MASS BALANCE
 ----------------------------------------------------------------------------------------------------
     TRANSPORT OUTPUT FOR COMPONENT SPECIES NUMBER    1
     ------------------------------------------------------------
 -------------------------------------------------------------------------------------
 
 SOLVING FOR HEAD 

 Outer-Iteration  Inner-Iteration  Backtracking  Number of        Incoming       Outgoing      Cutoff     Maximum Head Change      Maximum Head Change
     Number           Count           Flag       Backtracks       Residual       Residual      Residual            Value               Location
        1                             0             0          0.851273E-02     0.851273E-02   -1.00000    
        1                7                                                                                       0.260433E-04               1279           GWF-node number
        2                             0             0          0.198219E-04     0.198219E-04   -1.00000    
        2                4                                                                                      -0.185122E-05               2896           GWF-node number
     2 CALLS TO SPARSE MATRIX SOLVER PACKAGE  IN FLOW TIME STEP     368 STRESS PERIOD       2

 TOTAL OF       2OUTER ITERATIONS
  MAXIMUM CHANGE FOR EACH ITERATION:
   MAX. CHANGE        NODE  MAX. CHANGE        NODE  MAX. CHANGE        NODE  MAX. CHANGE        NODE  MAX. CHANGE        NODE
 ------------------------------------------------------------------------------------------------------------------------------------
   0.26043E-04,       1279 -0.18512E-05,       2896

 NO OUTPUT CONTROL FOR STRESS PERIOD        2   TIME STEP      368



          TIME SUMMARY AT END OF TIME STEP       368 IN STRESS PERIOD         2
                    SECONDS     MINUTES      HOURS       DAYS        YEARS
                    -----------------------------------------------------------
   TIME STEP LENGTH  86.400      1.4400     2.40000E-02 1.00000E-03 2.73785E-06
 STRESS PERIOD TIME  31795.      529.92      8.8320     0.36800     1.00753E-03
         TOTAL TIME 1.18195E+05  1969.9      32.832      1.3680     3.74538E-03
1
 ------------------------------------------------------------------------------------------------------------
 
 SOLVING FOR TRANSPORT 

          SEQUENTIAL TRANSPORT ITERATION LOOP NUMBER    1
          -----------------------------------------------

 ------------------------------------------------------------------------------------------------------------------------
     1 CALLS TO SPARSE MATRIX SOLVER PACKAGE IN TRANSPORT TIME STEP     368 STRESS PERIOD       2 SPECIES  1

 TOTAL OF       1OUTER ITERATIONS
  MAXIMUM CHANGE FOR EACH ITERATION:
   MAX. CHANGE        NODE  MAX. CHANGE        NODE  MAX. CHANGE        NODE  MAX. CHANGE        NODE  MAX. CHANGE        NODE
 ------------------------------------------------------------------------------------------------------------------------------------
  -0.38853    ,       1280
     TRANSPORT SOLUTION COMPLETE FOR COMPONENT SPECIES NUMBER    1
     ------------------------------------------------------------

 TRANSPORT SOLUTION COMPLETE FOR ALL SPECIES, SORTING OUTPUT FOR CONCENTRATIONS AND MASS BALANCE
 ----------------------------------------------------------------------------------------------------
     TRANSPORT OUTPUT FOR COMPONENT SPECIES NUMBER    1
     ------------------------------------------------------------
 -------------------------------------------------------------------------------------
 
 SOLVING FOR HEAD 

 Outer-Iteration  Inner-Iteration  Backtracking  Number of        Incoming       Outgoing      Cutoff     Maximum Head Change      Maximum Head Change
     Number           Count           Flag       Backtracks       Residual       Residual      Residual            Value               Location
        1                             0             0          0.173189E-01     0.173189E-01   -1.00000    
        1                8                                                                                       0.319736E-04               1280           GWF-node number
        2                             0             0          0.228348E-04     0.228348E-04   -1.00000    
        2                4                                                                                       0.517326E-05               1201           GWF-node number
     2 CALLS TO SPARSE MATRIX SOLVER PACKAGE  IN FLOW TIME STEP     369 STRESS PERIOD       2

 TOTAL OF       2OUTER ITERATIONS
  MAXIMUM CHANGE FOR EACH ITERATION:
   MAX. CHANGE        NODE  MAX. CHANGE        NODE  MAX. CHANGE        NODE  MAX. CHANGE        NODE  MAX. CHANGE        NODE
 ------------------------------------------------------------------------------------------------------------------------------------
   0.31974E-04,       1280  0.51733E-05,       1201

 NO OUTPUT CONTROL FOR STRESS PERIOD        2   TIME STEP      369



          TIME SUMMARY AT END OF TIME STEP       369 IN STRESS PERIOD         2
                    SECONDS     MINUTES      HOURS       DAYS        YEARS
                    -----------------------------------------------------------
   TIME STEP LENGTH  86.400      1.4400     2.40000E-02 1.00000E-03 2.73785E-06
 STRESS PERIOD TIME  31882.      531.36      8.8560     0.36900     1.01027E-03
         TOTAL TIME 1.18282E+05  1971.4      32.856      1.3690     3.74812E-03
1
 ------------------------------------------------------------------------------------------------------------
 
 SOLVING FOR TRANSPORT 

          SEQUENTIAL TRANSPORT ITERATION LOOP NUMBER    1
          -----------------------------------------------

 ------------------------------------------------------------------------------------------------------------------------
     1 CALLS TO SPARSE MATRIX SOLVER PACKAGE IN TRANSPORT TIME STEP     369 STRESS PERIOD       2 SPECIES  1

 TOTAL OF       1OUTER ITERATIONS
  MAXIMUM CHANGE FOR EACH ITERATION:
   MAX. CHANGE        NODE  MAX. CHANGE        NODE  MAX. CHANGE        NODE  MAX. CHANGE        NODE  MAX. CHANGE        NODE
 ------------------------------------------------------------------------------------------------------------------------------------
  -0.55132    ,       1280
     TRANSPORT SOLUTION COMPLETE FOR COMPONENT SPECIES NUMBER    1
     ------------------------------------------------------------

 TRANSPORT SOLUTION COMPLETE FOR ALL SPECIES, SORTING OUTPUT FOR CONCENTRATIONS AND MASS BALANCE
 ----------------------------------------------------------------------------------------------------
     TRANSPORT OUTPUT FOR COMPONENT SPECIES NUMBER    1
     ------------------------------------------------------------
 -------------------------------------------------------------------------------------
 
 SOLVING FOR HEAD 

 Outer-Iteration  Inner-Iteration  Backtracking  Number of        Incoming       Outgoing      Cutoff     Maximum Head Change      Maximum Head Change
     Number           Count           Flag       Backtracks       Residual       Residual      Residual            Value               Location
        1                             0             0          0.526406E-01     0.526406E-01   -1.00000    
        1               11                                                                                       0.503990E-04               1280           GWF-node number
        2                             0             0          0.618859E-06     0.618859E-06   -1.00000    
        2                2                                                                                       0.129564E-05               2974           GWF-node number
     2 CALLS TO SPARSE MATRIX SOLVER PACKAGE  IN FLOW TIME STEP     370 STRESS PERIOD       2

 TOTAL OF       2OUTER ITERATIONS
  MAXIMUM CHANGE FOR EACH ITERATION:
   MAX. CHANGE        NODE  MAX. CHANGE        NODE  MAX. CHANGE        NODE  MAX. CHANGE        NODE  MAX. CHANGE        NODE
 ------------------------------------------------------------------------------------------------------------------------------------
   0.50399E-04,       1280  0.12956E-05,       2974

 NO OUTPUT CONTROL FOR STRESS PERIOD        2   TIME STEP      370



          TIME SUMMARY AT END OF TIME STEP       370 IN STRESS PERIOD         2
                    SECONDS     MINUTES      HOURS       DAYS        YEARS
                    -----------------------------------------------------------
   TIME STEP LENGTH  86.400      1.4400     2.40000E-02 1.00000E-03 2.73785E-06
 STRESS PERIOD TIME  31968.      532.80      8.8800     0.37000     1.01300E-03
         TOTAL TIME 1.18368E+05  1972.8      32.880      1.3700     3.75086E-03
1
 ------------------------------------------------------------------------------------------------------------
 
 SOLVING FOR TRANSPORT 

          SEQUENTIAL TRANSPORT ITERATION LOOP NUMBER    1
          -----------------------------------------------

 ------------------------------------------------------------------------------------------------------------------------
     1 CALLS TO SPARSE MATRIX SOLVER PACKAGE IN TRANSPORT TIME STEP     370 STRESS PERIOD       2 SPECIES  1

 TOTAL OF       1OUTER ITERATIONS
  MAXIMUM CHANGE FOR EACH ITERATION:
   MAX. CHANGE        NODE  MAX. CHANGE        NODE  MAX. CHANGE        NODE  MAX. CHANGE        NODE  MAX. CHANGE        NODE
 ------------------------------------------------------------------------------------------------------------------------------------
  -0.42891    ,       1200
     TRANSPORT SOLUTION COMPLETE FOR COMPONENT SPECIES NUMBER    1
     ------------------------------------------------------------

 TRANSPORT SOLUTION COMPLETE FOR ALL SPECIES, SORTING OUTPUT FOR CONCENTRATIONS AND MASS BALANCE
 ----------------------------------------------------------------------------------------------------
     TRANSPORT OUTPUT FOR COMPONENT SPECIES NUMBER    1
     ------------------------------------------------------------
 -------------------------------------------------------------------------------------
 
 SOLVING FOR HEAD 

 Outer-Iteration  Inner-Iteration  Backtracking  Number of        Incoming       Outgoing      Cutoff     Maximum Head Change      Maximum Head Change
     Number           Count           Flag       Backtracks       Residual       Residual      Residual            Value               Location
        1                             0             0          0.196870E-01     0.196870E-01   -1.00000    
        1                9                                                                                       0.256567E-04               1200           GWF-node number
        2                             0             0          0.393939E-05     0.393939E-05   -1.00000    
        2                3                                                                                      -0.867548E-06               3136           GWF-node number
     2 CALLS TO SPARSE MATRIX SOLVER PACKAGE  IN FLOW TIME STEP     371 STRESS PERIOD       2

 TOTAL OF       2OUTER ITERATIONS
  MAXIMUM CHANGE FOR EACH ITERATION:
   MAX. CHANGE        NODE  MAX. CHANGE        NODE  MAX. CHANGE        NODE  MAX. CHANGE        NODE  MAX. CHANGE        NODE
 ------------------------------------------------------------------------------------------------------------------------------------
   0.25657E-04,       1200 -0.86755E-06,       3136

 NO OUTPUT CONTROL FOR STRESS PERIOD        2   TIME STEP      371



          TIME SUMMARY AT END OF TIME STEP       371 IN STRESS PERIOD         2
                    SECONDS     MINUTES      HOURS       DAYS        YEARS
                    -----------------------------------------------------------
   TIME STEP LENGTH  86.400      1.4400     2.40000E-02 1.00000E-03 2.73785E-06
 STRESS PERIOD TIME  32054.      534.24      8.9040     0.37100     1.01574E-03
         TOTAL TIME 1.18454E+05  1974.2      32.904      1.3710     3.75359E-03
1
 ------------------------------------------------------------------------------------------------------------
 
 SOLVING FOR TRANSPORT 

          SEQUENTIAL TRANSPORT ITERATION LOOP NUMBER    1
          -----------------------------------------------

 ------------------------------------------------------------------------------------------------------------------------
     1 CALLS TO SPARSE MATRIX SOLVER PACKAGE IN TRANSPORT TIME STEP     371 STRESS PERIOD       2 SPECIES  1

 TOTAL OF       1OUTER ITERATIONS
  MAXIMUM CHANGE FOR EACH ITERATION:
   MAX. CHANGE        NODE  MAX. CHANGE        NODE  MAX. CHANGE        NODE  MAX. CHANGE        NODE  MAX. CHANGE        NODE
 ------------------------------------------------------------------------------------------------------------------------------------
  -0.48705    ,       1200
     TRANSPORT SOLUTION COMPLETE FOR COMPONENT SPECIES NUMBER    1
     ------------------------------------------------------------

 TRANSPORT SOLUTION COMPLETE FOR ALL SPECIES, SORTING OUTPUT FOR CONCENTRATIONS AND MASS BALANCE
 ----------------------------------------------------------------------------------------------------
     TRANSPORT OUTPUT FOR COMPONENT SPECIES NUMBER    1
     ------------------------------------------------------------
 -------------------------------------------------------------------------------------
 
 SOLVING FOR HEAD 

 Outer-Iteration  Inner-Iteration  Backtracking  Number of        Incoming       Outgoing      Cutoff     Maximum Head Change      Maximum Head Change
     Number           Count           Flag       Backtracks       Residual       Residual      Residual            Value               Location
        1                             0             0          0.389875E-01     0.389875E-01   -1.00000    
        1               10                                                                                       0.416388E-04               1200           GWF-node number
        2                             0             0          0.233133E-05     0.233133E-05   -1.00000    
        2                2                                                                                      -0.120143E-05               2534           GWF-node number
     2 CALLS TO SPARSE MATRIX SOLVER PACKAGE  IN FLOW TIME STEP     372 STRESS PERIOD       2

 TOTAL OF       2OUTER ITERATIONS
  MAXIMUM CHANGE FOR EACH ITERATION:
   MAX. CHANGE        NODE  MAX. CHANGE        NODE  MAX. CHANGE        NODE  MAX. CHANGE        NODE  MAX. CHANGE        NODE
 ------------------------------------------------------------------------------------------------------------------------------------
   0.41639E-04,       1200 -0.12014E-05,       2534

 NO OUTPUT CONTROL FOR STRESS PERIOD        2   TIME STEP      372



          TIME SUMMARY AT END OF TIME STEP       372 IN STRESS PERIOD         2
                    SECONDS     MINUTES      HOURS       DAYS        YEARS
                    -----------------------------------------------------------
   TIME STEP LENGTH  86.400      1.4400     2.40000E-02 1.00000E-03 2.73785E-06
 STRESS PERIOD TIME  32141.      535.68      8.9280     0.37200     1.01848E-03
         TOTAL TIME 1.18541E+05  1975.7      32.928      1.3720     3.75633E-03
1
 ------------------------------------------------------------------------------------------------------------
 
 SOLVING FOR TRANSPORT 

          SEQUENTIAL TRANSPORT ITERATION LOOP NUMBER    1
          -----------------------------------------------

 ------------------------------------------------------------------------------------------------------------------------
     1 CALLS TO SPARSE MATRIX SOLVER PACKAGE IN TRANSPORT TIME STEP     372 STRESS PERIOD       2 SPECIES  1

 TOTAL OF       1OUTER ITERATIONS
  MAXIMUM CHANGE FOR EACH ITERATION:
   MAX. CHANGE        NODE  MAX. CHANGE        NODE  MAX. CHANGE        NODE  MAX. CHANGE        NODE  MAX. CHANGE        NODE
 ------------------------------------------------------------------------------------------------------------------------------------
  -0.58334    ,       1200
     TRANSPORT SOLUTION COMPLETE FOR COMPONENT SPECIES NUMBER    1
     ------------------------------------------------------------

 TRANSPORT SOLUTION COMPLETE FOR ALL SPECIES, SORTING OUTPUT FOR CONCENTRATIONS AND MASS BALANCE
 ----------------------------------------------------------------------------------------------------
     TRANSPORT OUTPUT FOR COMPONENT SPECIES NUMBER    1
     ------------------------------------------------------------
 -------------------------------------------------------------------------------------
 
 SOLVING FOR HEAD 

 Outer-Iteration  Inner-Iteration  Backtracking  Number of        Incoming       Outgoing      Cutoff     Maximum Head Change      Maximum Head Change
     Number           Count           Flag       Backtracks       Residual       Residual      Residual            Value               Location
        1                             0             0          0.909661E-01     0.909661E-01   -1.00000    
        1               11                                                                                       0.579976E-04               1200           GWF-node number
        2                             0             0          0.546908E-05     0.546908E-05   -1.00000    
        2                2                                                                                       0.104182E-05               2161           GWF-node number
     2 CALLS TO SPARSE MATRIX SOLVER PACKAGE  IN FLOW TIME STEP     373 STRESS PERIOD       2

 TOTAL OF       2OUTER ITERATIONS
  MAXIMUM CHANGE FOR EACH ITERATION:
   MAX. CHANGE        NODE  MAX. CHANGE        NODE  MAX. CHANGE        NODE  MAX. CHANGE        NODE  MAX. CHANGE        NODE
 ------------------------------------------------------------------------------------------------------------------------------------
   0.57998E-04,       1200  0.10418E-05,       2161

 NO OUTPUT CONTROL FOR STRESS PERIOD        2   TIME STEP      373



          TIME SUMMARY AT END OF TIME STEP       373 IN STRESS PERIOD         2
                    SECONDS     MINUTES      HOURS       DAYS        YEARS
                    -----------------------------------------------------------
   TIME STEP LENGTH  86.400      1.4400     2.40000E-02 1.00000E-03 2.73785E-06
 STRESS PERIOD TIME  32227.      537.12      8.9520     0.37300     1.02122E-03
         TOTAL TIME 1.18627E+05  1977.1      32.952      1.3730     3.75907E-03
1
 ------------------------------------------------------------------------------------------------------------
 
 SOLVING FOR TRANSPORT 

          SEQUENTIAL TRANSPORT ITERATION LOOP NUMBER    1
          -----------------------------------------------

 ------------------------------------------------------------------------------------------------------------------------
     1 CALLS TO SPARSE MATRIX SOLVER PACKAGE IN TRANSPORT TIME STEP     373 STRESS PERIOD       2 SPECIES  1

 TOTAL OF       1OUTER ITERATIONS
  MAXIMUM CHANGE FOR EACH ITERATION:
   MAX. CHANGE        NODE  MAX. CHANGE        NODE  MAX. CHANGE        NODE  MAX. CHANGE        NODE  MAX. CHANGE        NODE
 ------------------------------------------------------------------------------------------------------------------------------------
   0.37430    ,       1440
     TRANSPORT SOLUTION COMPLETE FOR COMPONENT SPECIES NUMBER    1
     ------------------------------------------------------------

 TRANSPORT SOLUTION COMPLETE FOR ALL SPECIES, SORTING OUTPUT FOR CONCENTRATIONS AND MASS BALANCE
 ----------------------------------------------------------------------------------------------------
     TRANSPORT OUTPUT FOR COMPONENT SPECIES NUMBER    1
     ------------------------------------------------------------
 -------------------------------------------------------------------------------------
 
 SOLVING FOR HEAD 

 Outer-Iteration  Inner-Iteration  Backtracking  Number of        Incoming       Outgoing      Cutoff     Maximum Head Change      Maximum Head Change
     Number           Count           Flag       Backtracks       Residual       Residual      Residual            Value               Location
        1                             0             0          0.127767E-01     0.127767E-01   -1.00000    
        1                9                                                                                      -0.277024E-04               1440           GWF-node number
        2                             0             0          0.363594E-05     0.363594E-05   -1.00000    
        2                2                                                                                       0.135283E-05               1044           GWF-node number
     2 CALLS TO SPARSE MATRIX SOLVER PACKAGE  IN FLOW TIME STEP     374 STRESS PERIOD       2

 TOTAL OF       2OUTER ITERATIONS
  MAXIMUM CHANGE FOR EACH ITERATION:
   MAX. CHANGE        NODE  MAX. CHANGE        NODE  MAX. CHANGE        NODE  MAX. CHANGE        NODE  MAX. CHANGE        NODE
 ------------------------------------------------------------------------------------------------------------------------------------
  -0.27702E-04,       1440  0.13528E-05,       1044

 NO OUTPUT CONTROL FOR STRESS PERIOD        2   TIME STEP      374



          TIME SUMMARY AT END OF TIME STEP       374 IN STRESS PERIOD         2
                    SECONDS     MINUTES      HOURS       DAYS        YEARS
                    -----------------------------------------------------------
   TIME STEP LENGTH  86.400      1.4400     2.40000E-02 1.00000E-03 2.73785E-06
 STRESS PERIOD TIME  32314.      538.56      8.9760     0.37400     1.02396E-03
         TOTAL TIME 1.18714E+05  1978.6      32.976      1.3740     3.76181E-03
1
 ------------------------------------------------------------------------------------------------------------
 
 SOLVING FOR TRANSPORT 

          SEQUENTIAL TRANSPORT ITERATION LOOP NUMBER    1
          -----------------------------------------------

 ------------------------------------------------------------------------------------------------------------------------
     1 CALLS TO SPARSE MATRIX SOLVER PACKAGE IN TRANSPORT TIME STEP     374 STRESS PERIOD       2 SPECIES  1

 TOTAL OF       1OUTER ITERATIONS
  MAXIMUM CHANGE FOR EACH ITERATION:
   MAX. CHANGE        NODE  MAX. CHANGE        NODE  MAX. CHANGE        NODE  MAX. CHANGE        NODE  MAX. CHANGE        NODE
 ------------------------------------------------------------------------------------------------------------------------------------
   0.38155    ,       1440
     TRANSPORT SOLUTION COMPLETE FOR COMPONENT SPECIES NUMBER    1
     ------------------------------------------------------------

 TRANSPORT SOLUTION COMPLETE FOR ALL SPECIES, SORTING OUTPUT FOR CONCENTRATIONS AND MASS BALANCE
 ----------------------------------------------------------------------------------------------------
     TRANSPORT OUTPUT FOR COMPONENT SPECIES NUMBER    1
     ------------------------------------------------------------
 -------------------------------------------------------------------------------------
 
 SOLVING FOR HEAD 

 Outer-Iteration  Inner-Iteration  Backtracking  Number of        Incoming       Outgoing      Cutoff     Maximum Head Change      Maximum Head Change
     Number           Count           Flag       Backtracks       Residual       Residual      Residual            Value               Location
        1                             0             0          0.870513E-02     0.870513E-02   -1.00000    
        1               12                                                                                      -0.264953E-04               1439           GWF-node number
        2                             0             0          0.318275E-07     0.318275E-07   -1.00000    
        2                1                                                                                      -0.387676E-06               2004           GWF-node number
     2 CALLS TO SPARSE MATRIX SOLVER PACKAGE  IN FLOW TIME STEP     375 STRESS PERIOD       2

 TOTAL OF       2OUTER ITERATIONS
  MAXIMUM CHANGE FOR EACH ITERATION:
   MAX. CHANGE        NODE  MAX. CHANGE        NODE  MAX. CHANGE        NODE  MAX. CHANGE        NODE  MAX. CHANGE        NODE
 ------------------------------------------------------------------------------------------------------------------------------------
  -0.26495E-04,       1439 -0.38768E-06,       2004

 NO OUTPUT CONTROL FOR STRESS PERIOD        2   TIME STEP      375



          TIME SUMMARY AT END OF TIME STEP       375 IN STRESS PERIOD         2
                    SECONDS     MINUTES      HOURS       DAYS        YEARS
                    -----------------------------------------------------------
   TIME STEP LENGTH  86.400      1.4400     2.40000E-02 1.00000E-03 2.73785E-06
 STRESS PERIOD TIME  32400.      540.00      9.0000     0.37500     1.02669E-03
         TOTAL TIME 1.18800E+05  1980.0      33.000      1.3750     3.76454E-03
1
 ------------------------------------------------------------------------------------------------------------
 
 SOLVING FOR TRANSPORT 

          SEQUENTIAL TRANSPORT ITERATION LOOP NUMBER    1
          -----------------------------------------------

 ------------------------------------------------------------------------------------------------------------------------
     1 CALLS TO SPARSE MATRIX SOLVER PACKAGE IN TRANSPORT TIME STEP     375 STRESS PERIOD       2 SPECIES  1

 TOTAL OF       1OUTER ITERATIONS
  MAXIMUM CHANGE FOR EACH ITERATION:
   MAX. CHANGE        NODE  MAX. CHANGE        NODE  MAX. CHANGE        NODE  MAX. CHANGE        NODE  MAX. CHANGE        NODE
 ------------------------------------------------------------------------------------------------------------------------------------
   0.45325    ,       1360
     TRANSPORT SOLUTION COMPLETE FOR COMPONENT SPECIES NUMBER    1
     ------------------------------------------------------------

 TRANSPORT SOLUTION COMPLETE FOR ALL SPECIES, SORTING OUTPUT FOR CONCENTRATIONS AND MASS BALANCE
 ----------------------------------------------------------------------------------------------------
     TRANSPORT OUTPUT FOR COMPONENT SPECIES NUMBER    1
     ------------------------------------------------------------
 -------------------------------------------------------------------------------------
 
 SOLVING FOR HEAD 

 Outer-Iteration  Inner-Iteration  Backtracking  Number of        Incoming       Outgoing      Cutoff     Maximum Head Change      Maximum Head Change
     Number           Count           Flag       Backtracks       Residual       Residual      Residual            Value               Location
        1                             0             0          0.104964E-01     0.104964E-01   -1.00000    
        1               10                                                                                      -0.265251E-04               1360           GWF-node number
        2                             0             0          0.363084E-06     0.363084E-06   -1.00000    
        2                3                                                                                       0.486732E-06               1224           GWF-node number
     2 CALLS TO SPARSE MATRIX SOLVER PACKAGE  IN FLOW TIME STEP     376 STRESS PERIOD       2

 TOTAL OF       2OUTER ITERATIONS
  MAXIMUM CHANGE FOR EACH ITERATION:
   MAX. CHANGE        NODE  MAX. CHANGE        NODE  MAX. CHANGE        NODE  MAX. CHANGE        NODE  MAX. CHANGE        NODE
 ------------------------------------------------------------------------------------------------------------------------------------
  -0.26525E-04,       1360  0.48673E-06,       1224

 NO OUTPUT CONTROL FOR STRESS PERIOD        2   TIME STEP      376



          TIME SUMMARY AT END OF TIME STEP       376 IN STRESS PERIOD         2
                    SECONDS     MINUTES      HOURS       DAYS        YEARS
                    -----------------------------------------------------------
   TIME STEP LENGTH  86.400      1.4400     2.40000E-02 1.00000E-03 2.73785E-06
 STRESS PERIOD TIME  32486.      541.44      9.0240     0.37600     1.02943E-03
         TOTAL TIME 1.18886E+05  1981.4      33.024      1.3760     3.76728E-03
1
 ------------------------------------------------------------------------------------------------------------
 
 SOLVING FOR TRANSPORT 

          SEQUENTIAL TRANSPORT ITERATION LOOP NUMBER    1
          -----------------------------------------------

 ------------------------------------------------------------------------------------------------------------------------
     1 CALLS TO SPARSE MATRIX SOLVER PACKAGE IN TRANSPORT TIME STEP     376 STRESS PERIOD       2 SPECIES  1

 TOTAL OF       1OUTER ITERATIONS
  MAXIMUM CHANGE FOR EACH ITERATION:
   MAX. CHANGE        NODE  MAX. CHANGE        NODE  MAX. CHANGE        NODE  MAX. CHANGE        NODE  MAX. CHANGE        NODE
 ------------------------------------------------------------------------------------------------------------------------------------
   0.41080    ,       1360
     TRANSPORT SOLUTION COMPLETE FOR COMPONENT SPECIES NUMBER    1
     ------------------------------------------------------------

 TRANSPORT SOLUTION COMPLETE FOR ALL SPECIES, SORTING OUTPUT FOR CONCENTRATIONS AND MASS BALANCE
 ----------------------------------------------------------------------------------------------------
     TRANSPORT OUTPUT FOR COMPONENT SPECIES NUMBER    1
     ------------------------------------------------------------
 -------------------------------------------------------------------------------------
 
 SOLVING FOR HEAD 

 Outer-Iteration  Inner-Iteration  Backtracking  Number of        Incoming       Outgoing      Cutoff     Maximum Head Change      Maximum Head Change
     Number           Count           Flag       Backtracks       Residual       Residual      Residual            Value               Location
        1                             0             0          0.903316E-02     0.903316E-02   -1.00000    
        1               13                                                                                      -0.242842E-04               1360           GWF-node number
        2                             0             0          0.348154E-07     0.348154E-07   -1.00000    
        2                1                                                                                       0.182155E-06                695           GWF-node number
     2 CALLS TO SPARSE MATRIX SOLVER PACKAGE  IN FLOW TIME STEP     377 STRESS PERIOD       2

 TOTAL OF       2OUTER ITERATIONS
  MAXIMUM CHANGE FOR EACH ITERATION:
   MAX. CHANGE        NODE  MAX. CHANGE        NODE  MAX. CHANGE        NODE  MAX. CHANGE        NODE  MAX. CHANGE        NODE
 ------------------------------------------------------------------------------------------------------------------------------------
  -0.24284E-04,       1360  0.18215E-06,        695

 NO OUTPUT CONTROL FOR STRESS PERIOD        2   TIME STEP      377



          TIME SUMMARY AT END OF TIME STEP       377 IN STRESS PERIOD         2
                    SECONDS     MINUTES      HOURS       DAYS        YEARS
                    -----------------------------------------------------------
   TIME STEP LENGTH  86.400      1.4400     2.40000E-02 1.00000E-03 2.73785E-06
 STRESS PERIOD TIME  32573.      542.88      9.0480     0.37700     1.03217E-03
         TOTAL TIME 1.18973E+05  1982.9      33.048      1.3770     3.77002E-03
1
 ------------------------------------------------------------------------------------------------------------
 
 SOLVING FOR TRANSPORT 

          SEQUENTIAL TRANSPORT ITERATION LOOP NUMBER    1
          -----------------------------------------------

 ------------------------------------------------------------------------------------------------------------------------
     1 CALLS TO SPARSE MATRIX SOLVER PACKAGE IN TRANSPORT TIME STEP     377 STRESS PERIOD       2 SPECIES  1

 TOTAL OF       1OUTER ITERATIONS
  MAXIMUM CHANGE FOR EACH ITERATION:
   MAX. CHANGE        NODE  MAX. CHANGE        NODE  MAX. CHANGE        NODE  MAX. CHANGE        NODE  MAX. CHANGE        NODE
 ------------------------------------------------------------------------------------------------------------------------------------
   0.40414    ,       1280
     TRANSPORT SOLUTION COMPLETE FOR COMPONENT SPECIES NUMBER    1
     ------------------------------------------------------------

 TRANSPORT SOLUTION COMPLETE FOR ALL SPECIES, SORTING OUTPUT FOR CONCENTRATIONS AND MASS BALANCE
 ----------------------------------------------------------------------------------------------------
     TRANSPORT OUTPUT FOR COMPONENT SPECIES NUMBER    1
     ------------------------------------------------------------
 -------------------------------------------------------------------------------------
 
 SOLVING FOR HEAD 

 Outer-Iteration  Inner-Iteration  Backtracking  Number of        Incoming       Outgoing      Cutoff     Maximum Head Change      Maximum Head Change
     Number           Count           Flag       Backtracks       Residual       Residual      Residual            Value               Location
        1                             0             0          0.728328E-02     0.728328E-02   -1.00000    
        1               10                                                                                       0.197306E-04                790           GWF-node number
        2                             0             0          0.250842E-06     0.250842E-06   -1.00000    
        2                3                                                                                       0.311408E-06                623           GWF-node number
     2 CALLS TO SPARSE MATRIX SOLVER PACKAGE  IN FLOW TIME STEP     378 STRESS PERIOD       2

 TOTAL OF       2OUTER ITERATIONS
  MAXIMUM CHANGE FOR EACH ITERATION:
   MAX. CHANGE        NODE  MAX. CHANGE        NODE  MAX. CHANGE        NODE  MAX. CHANGE        NODE  MAX. CHANGE        NODE
 ------------------------------------------------------------------------------------------------------------------------------------
   0.19731E-04,        790  0.31141E-06,        623

 NO OUTPUT CONTROL FOR STRESS PERIOD        2   TIME STEP      378



          TIME SUMMARY AT END OF TIME STEP       378 IN STRESS PERIOD         2
                    SECONDS     MINUTES      HOURS       DAYS        YEARS
                    -----------------------------------------------------------
   TIME STEP LENGTH  86.400      1.4400     2.40000E-02 1.00000E-03 2.73785E-06
 STRESS PERIOD TIME  32659.      544.32      9.0720     0.37800     1.03491E-03
         TOTAL TIME 1.19059E+05  1984.3      33.072      1.3780     3.77276E-03
1
 ------------------------------------------------------------------------------------------------------------
 
 SOLVING FOR TRANSPORT 

          SEQUENTIAL TRANSPORT ITERATION LOOP NUMBER    1
          -----------------------------------------------

 ------------------------------------------------------------------------------------------------------------------------
     1 CALLS TO SPARSE MATRIX SOLVER PACKAGE IN TRANSPORT TIME STEP     378 STRESS PERIOD       2 SPECIES  1

 TOTAL OF       1OUTER ITERATIONS
  MAXIMUM CHANGE FOR EACH ITERATION:
   MAX. CHANGE        NODE  MAX. CHANGE        NODE  MAX. CHANGE        NODE  MAX. CHANGE        NODE  MAX. CHANGE        NODE
 ------------------------------------------------------------------------------------------------------------------------------------
   0.37964    ,       1280
     TRANSPORT SOLUTION COMPLETE FOR COMPONENT SPECIES NUMBER    1
     ------------------------------------------------------------

 TRANSPORT SOLUTION COMPLETE FOR ALL SPECIES, SORTING OUTPUT FOR CONCENTRATIONS AND MASS BALANCE
 ----------------------------------------------------------------------------------------------------
     TRANSPORT OUTPUT FOR COMPONENT SPECIES NUMBER    1
     ------------------------------------------------------------
 -------------------------------------------------------------------------------------
 
 SOLVING FOR HEAD 

 Outer-Iteration  Inner-Iteration  Backtracking  Number of        Incoming       Outgoing      Cutoff     Maximum Head Change      Maximum Head Change
     Number           Count           Flag       Backtracks       Residual       Residual      Residual            Value               Location
        1                             0             0          0.835590E-02     0.835590E-02   -1.00000    
        1                9                                                                                      -0.217169E-04               1280           GWF-node number
        2                             0             0          0.462893E-05     0.462893E-05   -1.00000    
        2                1                                                                                       0.713997E-06               2758           GWF-node number
     2 CALLS TO SPARSE MATRIX SOLVER PACKAGE  IN FLOW TIME STEP     379 STRESS PERIOD       2

 TOTAL OF       2OUTER ITERATIONS
  MAXIMUM CHANGE FOR EACH ITERATION:
   MAX. CHANGE        NODE  MAX. CHANGE        NODE  MAX. CHANGE        NODE  MAX. CHANGE        NODE  MAX. CHANGE        NODE
 ------------------------------------------------------------------------------------------------------------------------------------
  -0.21717E-04,       1280  0.71400E-06,       2758

 NO OUTPUT CONTROL FOR STRESS PERIOD        2   TIME STEP      379



          TIME SUMMARY AT END OF TIME STEP       379 IN STRESS PERIOD         2
                    SECONDS     MINUTES      HOURS       DAYS        YEARS
                    -----------------------------------------------------------
   TIME STEP LENGTH  86.400      1.4400     2.40000E-02 1.00000E-03 2.73785E-06
 STRESS PERIOD TIME  32746.      545.76      9.0960     0.37900     1.03765E-03
         TOTAL TIME 1.19146E+05  1985.8      33.096      1.3790     3.77550E-03
1
 ------------------------------------------------------------------------------------------------------------
 
 SOLVING FOR TRANSPORT 

          SEQUENTIAL TRANSPORT ITERATION LOOP NUMBER    1
          -----------------------------------------------

 ------------------------------------------------------------------------------------------------------------------------
     1 CALLS TO SPARSE MATRIX SOLVER PACKAGE IN TRANSPORT TIME STEP     379 STRESS PERIOD       2 SPECIES  1

 TOTAL OF       1OUTER ITERATIONS
  MAXIMUM CHANGE FOR EACH ITERATION:
   MAX. CHANGE        NODE  MAX. CHANGE        NODE  MAX. CHANGE        NODE  MAX. CHANGE        NODE  MAX. CHANGE        NODE
 ------------------------------------------------------------------------------------------------------------------------------------
   0.31734    ,       1040
     TRANSPORT SOLUTION COMPLETE FOR COMPONENT SPECIES NUMBER    1
     ------------------------------------------------------------

 TRANSPORT SOLUTION COMPLETE FOR ALL SPECIES, SORTING OUTPUT FOR CONCENTRATIONS AND MASS BALANCE
 ----------------------------------------------------------------------------------------------------
     TRANSPORT OUTPUT FOR COMPONENT SPECIES NUMBER    1
     ------------------------------------------------------------
 -------------------------------------------------------------------------------------
 
 SOLVING FOR HEAD 

 Outer-Iteration  Inner-Iteration  Backtracking  Number of        Incoming       Outgoing      Cutoff     Maximum Head Change      Maximum Head Change
     Number           Count           Flag       Backtracks       Residual       Residual      Residual            Value               Location
        1                             0             0          0.734977E-02     0.734977E-02   -1.00000    
        1               12                                                                                      -0.179201E-04               1280           GWF-node number
        2                             0             0          0.441626E-07     0.441626E-07   -1.00000    
        2                1                                                                                      -0.152663E-06               1772           GWF-node number
     2 CALLS TO SPARSE MATRIX SOLVER PACKAGE  IN FLOW TIME STEP     380 STRESS PERIOD       2

 TOTAL OF       2OUTER ITERATIONS
  MAXIMUM CHANGE FOR EACH ITERATION:
   MAX. CHANGE        NODE  MAX. CHANGE        NODE  MAX. CHANGE        NODE  MAX. CHANGE        NODE  MAX. CHANGE        NODE
 ------------------------------------------------------------------------------------------------------------------------------------
  -0.17920E-04,       1280 -0.15266E-06,       1772

 NO OUTPUT CONTROL FOR STRESS PERIOD        2   TIME STEP      380



          TIME SUMMARY AT END OF TIME STEP       380 IN STRESS PERIOD         2
                    SECONDS     MINUTES      HOURS       DAYS        YEARS
                    -----------------------------------------------------------
   TIME STEP LENGTH  86.400      1.4400     2.40000E-02 1.00000E-03 2.73785E-06
 STRESS PERIOD TIME  32832.      547.20      9.1200     0.38000     1.04038E-03
         TOTAL TIME 1.19232E+05  1987.2      33.120      1.3800     3.77823E-03
1
 ------------------------------------------------------------------------------------------------------------
 
 SOLVING FOR TRANSPORT 

          SEQUENTIAL TRANSPORT ITERATION LOOP NUMBER    1
          -----------------------------------------------

 ------------------------------------------------------------------------------------------------------------------------
     1 CALLS TO SPARSE MATRIX SOLVER PACKAGE IN TRANSPORT TIME STEP     380 STRESS PERIOD       2 SPECIES  1

 TOTAL OF       1OUTER ITERATIONS
  MAXIMUM CHANGE FOR EACH ITERATION:
   MAX. CHANGE        NODE  MAX. CHANGE        NODE  MAX. CHANGE        NODE  MAX. CHANGE        NODE  MAX. CHANGE        NODE
 ------------------------------------------------------------------------------------------------------------------------------------
   0.26444    ,        960
     TRANSPORT SOLUTION COMPLETE FOR COMPONENT SPECIES NUMBER    1
     ------------------------------------------------------------

 TRANSPORT SOLUTION COMPLETE FOR ALL SPECIES, SORTING OUTPUT FOR CONCENTRATIONS AND MASS BALANCE
 ----------------------------------------------------------------------------------------------------
     TRANSPORT OUTPUT FOR COMPONENT SPECIES NUMBER    1
     ------------------------------------------------------------
 -------------------------------------------------------------------------------------
 
 SOLVING FOR HEAD 

 Outer-Iteration  Inner-Iteration  Backtracking  Number of        Incoming       Outgoing      Cutoff     Maximum Head Change      Maximum Head Change
     Number           Count           Flag       Backtracks       Residual       Residual      Residual            Value               Location
        1                             0             0          0.415093E-02     0.415093E-02   -1.00000    
        1                9                                                                                       0.172052E-04               1519           GWF-node number
        2                             0             0          0.483286E-05     0.483286E-05   -1.00000    
        2                2                                                                                       0.172476E-05               3146           GWF-node number
     2 CALLS TO SPARSE MATRIX SOLVER PACKAGE  IN FLOW TIME STEP     381 STRESS PERIOD       2

 TOTAL OF       2OUTER ITERATIONS
  MAXIMUM CHANGE FOR EACH ITERATION:
   MAX. CHANGE        NODE  MAX. CHANGE        NODE  MAX. CHANGE        NODE  MAX. CHANGE        NODE  MAX. CHANGE        NODE
 ------------------------------------------------------------------------------------------------------------------------------------
   0.17205E-04,       1519  0.17248E-05,       3146

 NO OUTPUT CONTROL FOR STRESS PERIOD        2   TIME STEP      381



          TIME SUMMARY AT END OF TIME STEP       381 IN STRESS PERIOD         2
                    SECONDS     MINUTES      HOURS       DAYS        YEARS
                    -----------------------------------------------------------
   TIME STEP LENGTH  86.400      1.4400     2.40000E-02 1.00000E-03 2.73785E-06
 STRESS PERIOD TIME  32918.      548.64      9.1440     0.38100     1.04312E-03
         TOTAL TIME 1.19318E+05  1988.6      33.144      1.3810     3.78097E-03
1
 ------------------------------------------------------------------------------------------------------------
 
 SOLVING FOR TRANSPORT 

          SEQUENTIAL TRANSPORT ITERATION LOOP NUMBER    1
          -----------------------------------------------

 ------------------------------------------------------------------------------------------------------------------------
     1 CALLS TO SPARSE MATRIX SOLVER PACKAGE IN TRANSPORT TIME STEP     381 STRESS PERIOD       2 SPECIES  1

 TOTAL OF       1OUTER ITERATIONS
  MAXIMUM CHANGE FOR EACH ITERATION:
   MAX. CHANGE        NODE  MAX. CHANGE        NODE  MAX. CHANGE        NODE  MAX. CHANGE        NODE  MAX. CHANGE        NODE
 ------------------------------------------------------------------------------------------------------------------------------------
   0.20371    ,        880
     TRANSPORT SOLUTION COMPLETE FOR COMPONENT SPECIES NUMBER    1
     ------------------------------------------------------------

 TRANSPORT SOLUTION COMPLETE FOR ALL SPECIES, SORTING OUTPUT FOR CONCENTRATIONS AND MASS BALANCE
 ----------------------------------------------------------------------------------------------------
     TRANSPORT OUTPUT FOR COMPONENT SPECIES NUMBER    1
     ------------------------------------------------------------
 -------------------------------------------------------------------------------------
 
 SOLVING FOR HEAD 

 Outer-Iteration  Inner-Iteration  Backtracking  Number of        Incoming       Outgoing      Cutoff     Maximum Head Change      Maximum Head Change
     Number           Count           Flag       Backtracks       Residual       Residual      Residual            Value               Location
        1                             0             0          0.322967E-02     0.322967E-02   -1.00000    
        1               10                                                                                       0.174583E-04               1517           GWF-node number
        2                             0             0          0.306317E-06     0.306317E-06   -1.00000    
        2                1                                                                                      -0.317943E-06               1794           GWF-node number
     2 CALLS TO SPARSE MATRIX SOLVER PACKAGE  IN FLOW TIME STEP     382 STRESS PERIOD       2

 TOTAL OF       2OUTER ITERATIONS
  MAXIMUM CHANGE FOR EACH ITERATION:
   MAX. CHANGE        NODE  MAX. CHANGE        NODE  MAX. CHANGE        NODE  MAX. CHANGE        NODE  MAX. CHANGE        NODE
 ------------------------------------------------------------------------------------------------------------------------------------
   0.17458E-04,       1517 -0.31794E-06,       1794

 NO OUTPUT CONTROL FOR STRESS PERIOD        2   TIME STEP      382



          TIME SUMMARY AT END OF TIME STEP       382 IN STRESS PERIOD         2
                    SECONDS     MINUTES      HOURS       DAYS        YEARS
                    -----------------------------------------------------------
   TIME STEP LENGTH  86.400      1.4400     2.40000E-02 1.00000E-03 2.73785E-06
 STRESS PERIOD TIME  33005.      550.08      9.1680     0.38200     1.04586E-03
         TOTAL TIME 1.19405E+05  1990.1      33.168      1.3820     3.78371E-03
1
 ------------------------------------------------------------------------------------------------------------
 
 SOLVING FOR TRANSPORT 

          SEQUENTIAL TRANSPORT ITERATION LOOP NUMBER    1
          -----------------------------------------------

 ------------------------------------------------------------------------------------------------------------------------
     1 CALLS TO SPARSE MATRIX SOLVER PACKAGE IN TRANSPORT TIME STEP     382 STRESS PERIOD       2 SPECIES  1

 TOTAL OF       1OUTER ITERATIONS
  MAXIMUM CHANGE FOR EACH ITERATION:
   MAX. CHANGE        NODE  MAX. CHANGE        NODE  MAX. CHANGE        NODE  MAX. CHANGE        NODE  MAX. CHANGE        NODE
 ------------------------------------------------------------------------------------------------------------------------------------
   0.15191    ,        880
     TRANSPORT SOLUTION COMPLETE FOR COMPONENT SPECIES NUMBER    1
     ------------------------------------------------------------

 TRANSPORT SOLUTION COMPLETE FOR ALL SPECIES, SORTING OUTPUT FOR CONCENTRATIONS AND MASS BALANCE
 ----------------------------------------------------------------------------------------------------
     TRANSPORT OUTPUT FOR COMPONENT SPECIES NUMBER    1
     ------------------------------------------------------------
 -------------------------------------------------------------------------------------
 
 SOLVING FOR HEAD 

 Outer-Iteration  Inner-Iteration  Backtracking  Number of        Incoming       Outgoing      Cutoff     Maximum Head Change      Maximum Head Change
     Number           Count           Flag       Backtracks       Residual       Residual      Residual            Value               Location
        1                             0             0          0.344584E-02     0.344584E-02   -1.00000    
        1               10                                                                                       0.182567E-04               1438           GWF-node number
        2                             0             0          0.155432E-06     0.155432E-06   -1.00000    
        2                1                                                                                      -0.551224E-06               2961           GWF-node number
     2 CALLS TO SPARSE MATRIX SOLVER PACKAGE  IN FLOW TIME STEP     383 STRESS PERIOD       2

 TOTAL OF       2OUTER ITERATIONS
  MAXIMUM CHANGE FOR EACH ITERATION:
   MAX. CHANGE        NODE  MAX. CHANGE        NODE  MAX. CHANGE        NODE  MAX. CHANGE        NODE  MAX. CHANGE        NODE
 ------------------------------------------------------------------------------------------------------------------------------------
   0.18257E-04,       1438 -0.55122E-06,       2961

 NO OUTPUT CONTROL FOR STRESS PERIOD        2   TIME STEP      383



          TIME SUMMARY AT END OF TIME STEP       383 IN STRESS PERIOD         2
                    SECONDS     MINUTES      HOURS       DAYS        YEARS
                    -----------------------------------------------------------
   TIME STEP LENGTH  86.400      1.4400     2.40000E-02 1.00000E-03 2.73785E-06
 STRESS PERIOD TIME  33091.      551.52      9.1920     0.38300     1.04860E-03
         TOTAL TIME 1.19491E+05  1991.5      33.192      1.3830     3.78645E-03
1
 ------------------------------------------------------------------------------------------------------------
 
 SOLVING FOR TRANSPORT 

          SEQUENTIAL TRANSPORT ITERATION LOOP NUMBER    1
          -----------------------------------------------

 ------------------------------------------------------------------------------------------------------------------------
     1 CALLS TO SPARSE MATRIX SOLVER PACKAGE IN TRANSPORT TIME STEP     383 STRESS PERIOD       2 SPECIES  1

 TOTAL OF       1OUTER ITERATIONS
  MAXIMUM CHANGE FOR EACH ITERATION:
   MAX. CHANGE        NODE  MAX. CHANGE        NODE  MAX. CHANGE        NODE  MAX. CHANGE        NODE  MAX. CHANGE        NODE
 ------------------------------------------------------------------------------------------------------------------------------------
  -0.17340    ,       1520
     TRANSPORT SOLUTION COMPLETE FOR COMPONENT SPECIES NUMBER    1
     ------------------------------------------------------------

 TRANSPORT SOLUTION COMPLETE FOR ALL SPECIES, SORTING OUTPUT FOR CONCENTRATIONS AND MASS BALANCE
 ----------------------------------------------------------------------------------------------------
     TRANSPORT OUTPUT FOR COMPONENT SPECIES NUMBER    1
     ------------------------------------------------------------
 -------------------------------------------------------------------------------------
 
 SOLVING FOR HEAD 

 Outer-Iteration  Inner-Iteration  Backtracking  Number of        Incoming       Outgoing      Cutoff     Maximum Head Change      Maximum Head Change
     Number           Count           Flag       Backtracks       Residual       Residual      Residual            Value               Location
        1                             0             0          0.403767E-02     0.403767E-02   -1.00000    
        1               11                                                                                       0.195641E-04               1438           GWF-node number
        2                             0             0          0.307416E-06     0.307416E-06   -1.00000    
        2                1                                                                                      -0.514360E-06               2641           GWF-node number
     2 CALLS TO SPARSE MATRIX SOLVER PACKAGE  IN FLOW TIME STEP     384 STRESS PERIOD       2

 TOTAL OF       2OUTER ITERATIONS
  MAXIMUM CHANGE FOR EACH ITERATION:
   MAX. CHANGE        NODE  MAX. CHANGE        NODE  MAX. CHANGE        NODE  MAX. CHANGE        NODE  MAX. CHANGE        NODE
 ------------------------------------------------------------------------------------------------------------------------------------
   0.19564E-04,       1438 -0.51436E-06,       2641

 NO OUTPUT CONTROL FOR STRESS PERIOD        2   TIME STEP      384



          TIME SUMMARY AT END OF TIME STEP       384 IN STRESS PERIOD         2
                    SECONDS     MINUTES      HOURS       DAYS        YEARS
                    -----------------------------------------------------------
   TIME STEP LENGTH  86.400      1.4400     2.40000E-02 1.00000E-03 2.73785E-06
 STRESS PERIOD TIME  33178.      552.96      9.2160     0.38400     1.05133E-03
         TOTAL TIME 1.19578E+05  1993.0      33.216      1.3840     3.78919E-03
1
 ------------------------------------------------------------------------------------------------------------
 
 SOLVING FOR TRANSPORT 

          SEQUENTIAL TRANSPORT ITERATION LOOP NUMBER    1
          -----------------------------------------------

 ------------------------------------------------------------------------------------------------------------------------
     1 CALLS TO SPARSE MATRIX SOLVER PACKAGE IN TRANSPORT TIME STEP     384 STRESS PERIOD       2 SPECIES  1

 TOTAL OF       1OUTER ITERATIONS
  MAXIMUM CHANGE FOR EACH ITERATION:
   MAX. CHANGE        NODE  MAX. CHANGE        NODE  MAX. CHANGE        NODE  MAX. CHANGE        NODE  MAX. CHANGE        NODE
 ------------------------------------------------------------------------------------------------------------------------------------
  -0.21310    ,       1520
     TRANSPORT SOLUTION COMPLETE FOR COMPONENT SPECIES NUMBER    1
     ------------------------------------------------------------

 TRANSPORT SOLUTION COMPLETE FOR ALL SPECIES, SORTING OUTPUT FOR CONCENTRATIONS AND MASS BALANCE
 ----------------------------------------------------------------------------------------------------
     TRANSPORT OUTPUT FOR COMPONENT SPECIES NUMBER    1
     ------------------------------------------------------------
 -------------------------------------------------------------------------------------
 
 SOLVING FOR HEAD 

 Outer-Iteration  Inner-Iteration  Backtracking  Number of        Incoming       Outgoing      Cutoff     Maximum Head Change      Maximum Head Change
     Number           Count           Flag       Backtracks       Residual       Residual      Residual            Value               Location
        1                             0             0          0.498449E-02     0.498449E-02   -1.00000    
        1                9                                                                                       0.196683E-04               1438           GWF-node number
        2                             0             0          0.317959E-05     0.317959E-05   -1.00000    
        2                1                                                                                       0.953998E-06               1217           GWF-node number
     2 CALLS TO SPARSE MATRIX SOLVER PACKAGE  IN FLOW TIME STEP     385 STRESS PERIOD       2

 TOTAL OF       2OUTER ITERATIONS
  MAXIMUM CHANGE FOR EACH ITERATION:
   MAX. CHANGE        NODE  MAX. CHANGE        NODE  MAX. CHANGE        NODE  MAX. CHANGE        NODE  MAX. CHANGE        NODE
 ------------------------------------------------------------------------------------------------------------------------------------
   0.19668E-04,       1438  0.95400E-06,       1217

 NO OUTPUT CONTROL FOR STRESS PERIOD        2   TIME STEP      385



          TIME SUMMARY AT END OF TIME STEP       385 IN STRESS PERIOD         2
                    SECONDS     MINUTES      HOURS       DAYS        YEARS
                    -----------------------------------------------------------
   TIME STEP LENGTH  86.400      1.4400     2.40000E-02 1.00000E-03 2.73785E-06
 STRESS PERIOD TIME  33264.      554.40      9.2400     0.38500     1.05407E-03
         TOTAL TIME 1.19664E+05  1994.4      33.240      1.3850     3.79192E-03
1
 ------------------------------------------------------------------------------------------------------------
 
 SOLVING FOR TRANSPORT 

          SEQUENTIAL TRANSPORT ITERATION LOOP NUMBER    1
          -----------------------------------------------

 ------------------------------------------------------------------------------------------------------------------------
     1 CALLS TO SPARSE MATRIX SOLVER PACKAGE IN TRANSPORT TIME STEP     385 STRESS PERIOD       2 SPECIES  1

 TOTAL OF       1OUTER ITERATIONS
  MAXIMUM CHANGE FOR EACH ITERATION:
   MAX. CHANGE        NODE  MAX. CHANGE        NODE  MAX. CHANGE        NODE  MAX. CHANGE        NODE  MAX. CHANGE        NODE
 ------------------------------------------------------------------------------------------------------------------------------------
  -0.24405    ,       1440
     TRANSPORT SOLUTION COMPLETE FOR COMPONENT SPECIES NUMBER    1
     ------------------------------------------------------------

 TRANSPORT SOLUTION COMPLETE FOR ALL SPECIES, SORTING OUTPUT FOR CONCENTRATIONS AND MASS BALANCE
 ----------------------------------------------------------------------------------------------------
     TRANSPORT OUTPUT FOR COMPONENT SPECIES NUMBER    1
     ------------------------------------------------------------
 -------------------------------------------------------------------------------------
 
 SOLVING FOR HEAD 

 Outer-Iteration  Inner-Iteration  Backtracking  Number of        Incoming       Outgoing      Cutoff     Maximum Head Change      Maximum Head Change
     Number           Count           Flag       Backtracks       Residual       Residual      Residual            Value               Location
        1                             0             0          0.576823E-02     0.576823E-02   -1.00000    
        1               11                                                                                       0.223186E-04               1438           GWF-node number
        2                             0             0          0.395265E-06     0.395265E-06   -1.00000    
        2                1                                                                                       0.638918E-06               3134           GWF-node number
     2 CALLS TO SPARSE MATRIX SOLVER PACKAGE  IN FLOW TIME STEP     386 STRESS PERIOD       2

 TOTAL OF       2OUTER ITERATIONS
  MAXIMUM CHANGE FOR EACH ITERATION:
   MAX. CHANGE        NODE  MAX. CHANGE        NODE  MAX. CHANGE        NODE  MAX. CHANGE        NODE  MAX. CHANGE        NODE
 ------------------------------------------------------------------------------------------------------------------------------------
   0.22319E-04,       1438  0.63892E-06,       3134

 NO OUTPUT CONTROL FOR STRESS PERIOD        2   TIME STEP      386



          TIME SUMMARY AT END OF TIME STEP       386 IN STRESS PERIOD         2
                    SECONDS     MINUTES      HOURS       DAYS        YEARS
                    -----------------------------------------------------------
   TIME STEP LENGTH  86.400      1.4400     2.40000E-02 1.00000E-03 2.73785E-06
 STRESS PERIOD TIME  33350.      555.84      9.2640     0.38600     1.05681E-03
         TOTAL TIME 1.19750E+05  1995.8      33.264      1.3860     3.79466E-03
1
 ------------------------------------------------------------------------------------------------------------
 
 SOLVING FOR TRANSPORT 

          SEQUENTIAL TRANSPORT ITERATION LOOP NUMBER    1
          -----------------------------------------------

 ------------------------------------------------------------------------------------------------------------------------
     1 CALLS TO SPARSE MATRIX SOLVER PACKAGE IN TRANSPORT TIME STEP     386 STRESS PERIOD       2 SPECIES  1

 TOTAL OF       1OUTER ITERATIONS
  MAXIMUM CHANGE FOR EACH ITERATION:
   MAX. CHANGE        NODE  MAX. CHANGE        NODE  MAX. CHANGE        NODE  MAX. CHANGE        NODE  MAX. CHANGE        NODE
 ------------------------------------------------------------------------------------------------------------------------------------
  -0.31438    ,       1440
     TRANSPORT SOLUTION COMPLETE FOR COMPONENT SPECIES NUMBER    1
     ------------------------------------------------------------

 TRANSPORT SOLUTION COMPLETE FOR ALL SPECIES, SORTING OUTPUT FOR CONCENTRATIONS AND MASS BALANCE
 ----------------------------------------------------------------------------------------------------
     TRANSPORT OUTPUT FOR COMPONENT SPECIES NUMBER    1
     ------------------------------------------------------------
 -------------------------------------------------------------------------------------
 
 SOLVING FOR HEAD 

 Outer-Iteration  Inner-Iteration  Backtracking  Number of        Incoming       Outgoing      Cutoff     Maximum Head Change      Maximum Head Change
     Number           Count           Flag       Backtracks       Residual       Residual      Residual            Value               Location
        1                             0             0          0.830951E-02     0.830951E-02   -1.00000    
        1                9                                                                                       0.241287E-04               1440           GWF-node number
        2                             0             0          0.157706E-05     0.157706E-05   -1.00000    
        2                2                                                                                       0.891932E-06               3177           GWF-node number
     2 CALLS TO SPARSE MATRIX SOLVER PACKAGE  IN FLOW TIME STEP     387 STRESS PERIOD       2

 TOTAL OF       2OUTER ITERATIONS
  MAXIMUM CHANGE FOR EACH ITERATION:
   MAX. CHANGE        NODE  MAX. CHANGE        NODE  MAX. CHANGE        NODE  MAX. CHANGE        NODE  MAX. CHANGE        NODE
 ------------------------------------------------------------------------------------------------------------------------------------
   0.24129E-04,       1440  0.89193E-06,       3177

 NO OUTPUT CONTROL FOR STRESS PERIOD        2   TIME STEP      387



          TIME SUMMARY AT END OF TIME STEP       387 IN STRESS PERIOD         2
                    SECONDS     MINUTES      HOURS       DAYS        YEARS
                    -----------------------------------------------------------
   TIME STEP LENGTH  86.400      1.4400     2.40000E-02 1.00000E-03 2.73785E-06
 STRESS PERIOD TIME  33437.      557.28      9.2880     0.38700     1.05955E-03
         TOTAL TIME 1.19837E+05  1997.3      33.288      1.3870     3.79740E-03
1
 ------------------------------------------------------------------------------------------------------------
 
 SOLVING FOR TRANSPORT 

          SEQUENTIAL TRANSPORT ITERATION LOOP NUMBER    1
          -----------------------------------------------

 ------------------------------------------------------------------------------------------------------------------------
     1 CALLS TO SPARSE MATRIX SOLVER PACKAGE IN TRANSPORT TIME STEP     387 STRESS PERIOD       2 SPECIES  1

 TOTAL OF       1OUTER ITERATIONS
  MAXIMUM CHANGE FOR EACH ITERATION:
   MAX. CHANGE        NODE  MAX. CHANGE        NODE  MAX. CHANGE        NODE  MAX. CHANGE        NODE  MAX. CHANGE        NODE
 ------------------------------------------------------------------------------------------------------------------------------------
  -0.29417    ,       1360
     TRANSPORT SOLUTION COMPLETE FOR COMPONENT SPECIES NUMBER    1
     ------------------------------------------------------------

 TRANSPORT SOLUTION COMPLETE FOR ALL SPECIES, SORTING OUTPUT FOR CONCENTRATIONS AND MASS BALANCE
 ----------------------------------------------------------------------------------------------------
     TRANSPORT OUTPUT FOR COMPONENT SPECIES NUMBER    1
     ------------------------------------------------------------
 -------------------------------------------------------------------------------------
 
 SOLVING FOR HEAD 

 Outer-Iteration  Inner-Iteration  Backtracking  Number of        Incoming       Outgoing      Cutoff     Maximum Head Change      Maximum Head Change
     Number           Count           Flag       Backtracks       Residual       Residual      Residual            Value               Location
        1                             0             0          0.753051E-02     0.753051E-02   -1.00000    
        1               10                                                                                       0.292448E-04               1359           GWF-node number
        2                             0             0          0.895943E-06     0.895943E-06   -1.00000    
        2                1                                                                                      -0.658324E-06               2644           GWF-node number
     2 CALLS TO SPARSE MATRIX SOLVER PACKAGE  IN FLOW TIME STEP     388 STRESS PERIOD       2

 TOTAL OF       2OUTER ITERATIONS
  MAXIMUM CHANGE FOR EACH ITERATION:
   MAX. CHANGE        NODE  MAX. CHANGE        NODE  MAX. CHANGE        NODE  MAX. CHANGE        NODE  MAX. CHANGE        NODE
 ------------------------------------------------------------------------------------------------------------------------------------
   0.29245E-04,       1359 -0.65832E-06,       2644

 NO OUTPUT CONTROL FOR STRESS PERIOD        2   TIME STEP      388



          TIME SUMMARY AT END OF TIME STEP       388 IN STRESS PERIOD         2
                    SECONDS     MINUTES      HOURS       DAYS        YEARS
                    -----------------------------------------------------------
   TIME STEP LENGTH  86.400      1.4400     2.40000E-02 1.00000E-03 2.73785E-06
 STRESS PERIOD TIME  33523.      558.72      9.3120     0.38800     1.06229E-03
         TOTAL TIME 1.19923E+05  1998.7      33.312      1.3880     3.80014E-03
1
 ------------------------------------------------------------------------------------------------------------
 
 SOLVING FOR TRANSPORT 

          SEQUENTIAL TRANSPORT ITERATION LOOP NUMBER    1
          -----------------------------------------------

 ------------------------------------------------------------------------------------------------------------------------
     1 CALLS TO SPARSE MATRIX SOLVER PACKAGE IN TRANSPORT TIME STEP     388 STRESS PERIOD       2 SPECIES  1

 TOTAL OF       1OUTER ITERATIONS
  MAXIMUM CHANGE FOR EACH ITERATION:
   MAX. CHANGE        NODE  MAX. CHANGE        NODE  MAX. CHANGE        NODE  MAX. CHANGE        NODE  MAX. CHANGE        NODE
 ------------------------------------------------------------------------------------------------------------------------------------
  -0.36853    ,       1360
     TRANSPORT SOLUTION COMPLETE FOR COMPONENT SPECIES NUMBER    1
     ------------------------------------------------------------

 TRANSPORT SOLUTION COMPLETE FOR ALL SPECIES, SORTING OUTPUT FOR CONCENTRATIONS AND MASS BALANCE
 ----------------------------------------------------------------------------------------------------
     TRANSPORT OUTPUT FOR COMPONENT SPECIES NUMBER    1
     ------------------------------------------------------------
 -------------------------------------------------------------------------------------
 
 SOLVING FOR HEAD 

 Outer-Iteration  Inner-Iteration  Backtracking  Number of        Incoming       Outgoing      Cutoff     Maximum Head Change      Maximum Head Change
     Number           Count           Flag       Backtracks       Residual       Residual      Residual            Value               Location
        1                             0             0          0.132130E-01     0.132130E-01   -1.00000    
        1                7                                                                                       0.296533E-04               1360           GWF-node number
        2                             0             0          0.187127E-04     0.187127E-04   -1.00000    
        2                5                                                                                      -0.449154E-05               2500           GWF-node number
     2 CALLS TO SPARSE MATRIX SOLVER PACKAGE  IN FLOW TIME STEP     389 STRESS PERIOD       2

 TOTAL OF       2OUTER ITERATIONS
  MAXIMUM CHANGE FOR EACH ITERATION:
   MAX. CHANGE        NODE  MAX. CHANGE        NODE  MAX. CHANGE        NODE  MAX. CHANGE        NODE  MAX. CHANGE        NODE
 ------------------------------------------------------------------------------------------------------------------------------------
   0.29653E-04,       1360 -0.44915E-05,       2500

 NO OUTPUT CONTROL FOR STRESS PERIOD        2   TIME STEP      389



          TIME SUMMARY AT END OF TIME STEP       389 IN STRESS PERIOD         2
                    SECONDS     MINUTES      HOURS       DAYS        YEARS
                    -----------------------------------------------------------
   TIME STEP LENGTH  86.400      1.4400     2.40000E-02 1.00000E-03 2.73785E-06
 STRESS PERIOD TIME  33610.      560.16      9.3360     0.38900     1.06502E-03
         TOTAL TIME 1.20010E+05  2000.2      33.336      1.3890     3.80287E-03
1
 ------------------------------------------------------------------------------------------------------------
 
 SOLVING FOR TRANSPORT 

          SEQUENTIAL TRANSPORT ITERATION LOOP NUMBER    1
          -----------------------------------------------

 ------------------------------------------------------------------------------------------------------------------------
     1 CALLS TO SPARSE MATRIX SOLVER PACKAGE IN TRANSPORT TIME STEP     389 STRESS PERIOD       2 SPECIES  1

 TOTAL OF       1OUTER ITERATIONS
  MAXIMUM CHANGE FOR EACH ITERATION:
   MAX. CHANGE        NODE  MAX. CHANGE        NODE  MAX. CHANGE        NODE  MAX. CHANGE        NODE  MAX. CHANGE        NODE
 ------------------------------------------------------------------------------------------------------------------------------------
  -0.38853    ,       1360
     TRANSPORT SOLUTION COMPLETE FOR COMPONENT SPECIES NUMBER    1
     ------------------------------------------------------------

 TRANSPORT SOLUTION COMPLETE FOR ALL SPECIES, SORTING OUTPUT FOR CONCENTRATIONS AND MASS BALANCE
 ----------------------------------------------------------------------------------------------------
     TRANSPORT OUTPUT FOR COMPONENT SPECIES NUMBER    1
     ------------------------------------------------------------
 -------------------------------------------------------------------------------------
 
 SOLVING FOR HEAD 

 Outer-Iteration  Inner-Iteration  Backtracking  Number of        Incoming       Outgoing      Cutoff     Maximum Head Change      Maximum Head Change
     Number           Count           Flag       Backtracks       Residual       Residual      Residual            Value               Location
        1                             0             0          0.163634E-01     0.163634E-01   -1.00000    
        1               12                                                                                       0.321899E-04               1360           GWF-node number
        2                             0             0          0.284658E-06     0.284658E-06   -1.00000    
        2                1                                                                                      -0.331208E-06               1489           GWF-node number
     2 CALLS TO SPARSE MATRIX SOLVER PACKAGE  IN FLOW TIME STEP     390 STRESS PERIOD       2

 TOTAL OF       2OUTER ITERATIONS
  MAXIMUM CHANGE FOR EACH ITERATION:
   MAX. CHANGE        NODE  MAX. CHANGE        NODE  MAX. CHANGE        NODE  MAX. CHANGE        NODE  MAX. CHANGE        NODE
 ------------------------------------------------------------------------------------------------------------------------------------
   0.32190E-04,       1360 -0.33121E-06,       1489

 NO OUTPUT CONTROL FOR STRESS PERIOD        2   TIME STEP      390



          TIME SUMMARY AT END OF TIME STEP       390 IN STRESS PERIOD         2
                    SECONDS     MINUTES      HOURS       DAYS        YEARS
                    -----------------------------------------------------------
   TIME STEP LENGTH  86.400      1.4400     2.40000E-02 1.00000E-03 2.73785E-06
 STRESS PERIOD TIME  33696.      561.60      9.3600     0.39000     1.06776E-03
         TOTAL TIME 1.20096E+05  2001.6      33.360      1.3900     3.80561E-03
1
 ------------------------------------------------------------------------------------------------------------
 
 SOLVING FOR TRANSPORT 

          SEQUENTIAL TRANSPORT ITERATION LOOP NUMBER    1
          -----------------------------------------------

 ------------------------------------------------------------------------------------------------------------------------
     1 CALLS TO SPARSE MATRIX SOLVER PACKAGE IN TRANSPORT TIME STEP     390 STRESS PERIOD       2 SPECIES  1

 TOTAL OF       1OUTER ITERATIONS
  MAXIMUM CHANGE FOR EACH ITERATION:
   MAX. CHANGE        NODE  MAX. CHANGE        NODE  MAX. CHANGE        NODE  MAX. CHANGE        NODE  MAX. CHANGE        NODE
 ------------------------------------------------------------------------------------------------------------------------------------
  -0.30543    ,       1280
     TRANSPORT SOLUTION COMPLETE FOR COMPONENT SPECIES NUMBER    1
     ------------------------------------------------------------

 TRANSPORT SOLUTION COMPLETE FOR ALL SPECIES, SORTING OUTPUT FOR CONCENTRATIONS AND MASS BALANCE
 ----------------------------------------------------------------------------------------------------
     TRANSPORT OUTPUT FOR COMPONENT SPECIES NUMBER    1
     ------------------------------------------------------------
 -------------------------------------------------------------------------------------
 
 SOLVING FOR HEAD 

 Outer-Iteration  Inner-Iteration  Backtracking  Number of        Incoming       Outgoing      Cutoff     Maximum Head Change      Maximum Head Change
     Number           Count           Flag       Backtracks       Residual       Residual      Residual            Value               Location
        1                             0             0          0.856390E-02     0.856390E-02   -1.00000    
        1               12                                                                                       0.260534E-04               1279           GWF-node number
        2                             0             0          0.904820E-07     0.904820E-07   -1.00000    
        2                1                                                                                      -0.467138E-06               3123           GWF-node number
     2 CALLS TO SPARSE MATRIX SOLVER PACKAGE  IN FLOW TIME STEP     391 STRESS PERIOD       2

 TOTAL OF       2OUTER ITERATIONS
  MAXIMUM CHANGE FOR EACH ITERATION:
   MAX. CHANGE        NODE  MAX. CHANGE        NODE  MAX. CHANGE        NODE  MAX. CHANGE        NODE  MAX. CHANGE        NODE
 ------------------------------------------------------------------------------------------------------------------------------------
   0.26053E-04,       1279 -0.46714E-06,       3123

 NO OUTPUT CONTROL FOR STRESS PERIOD        2   TIME STEP      391



          TIME SUMMARY AT END OF TIME STEP       391 IN STRESS PERIOD         2
                    SECONDS     MINUTES      HOURS       DAYS        YEARS
                    -----------------------------------------------------------
   TIME STEP LENGTH  86.400      1.4400     2.40000E-02 1.00000E-03 2.73785E-06
 STRESS PERIOD TIME  33782.      563.04      9.3840     0.39100     1.07050E-03
         TOTAL TIME 1.20182E+05  2003.0      33.384      1.3910     3.80835E-03
1
 ------------------------------------------------------------------------------------------------------------
 
 SOLVING FOR TRANSPORT 

          SEQUENTIAL TRANSPORT ITERATION LOOP NUMBER    1
          -----------------------------------------------

 ------------------------------------------------------------------------------------------------------------------------
     1 CALLS TO SPARSE MATRIX SOLVER PACKAGE IN TRANSPORT TIME STEP     391 STRESS PERIOD       2 SPECIES  1

 TOTAL OF       1OUTER ITERATIONS
  MAXIMUM CHANGE FOR EACH ITERATION:
   MAX. CHANGE        NODE  MAX. CHANGE        NODE  MAX. CHANGE        NODE  MAX. CHANGE        NODE  MAX. CHANGE        NODE
 ------------------------------------------------------------------------------------------------------------------------------------
  -0.38474    ,       1280
     TRANSPORT SOLUTION COMPLETE FOR COMPONENT SPECIES NUMBER    1
     ------------------------------------------------------------

 TRANSPORT SOLUTION COMPLETE FOR ALL SPECIES, SORTING OUTPUT FOR CONCENTRATIONS AND MASS BALANCE
 ----------------------------------------------------------------------------------------------------
     TRANSPORT OUTPUT FOR COMPONENT SPECIES NUMBER    1
     ------------------------------------------------------------
 -------------------------------------------------------------------------------------
 
 SOLVING FOR HEAD 

 Outer-Iteration  Inner-Iteration  Backtracking  Number of        Incoming       Outgoing      Cutoff     Maximum Head Change      Maximum Head Change
     Number           Count           Flag       Backtracks       Residual       Residual      Residual            Value               Location
        1                             0             0          0.161629E-01     0.161629E-01   -1.00000    
        1                8                                                                                       0.310727E-04               1280           GWF-node number
        2                             0             0          0.688345E-05     0.688345E-05   -1.00000    
        2                4                                                                                       0.947625E-06               2691           GWF-node number
     2 CALLS TO SPARSE MATRIX SOLVER PACKAGE  IN FLOW TIME STEP     392 STRESS PERIOD       2

 TOTAL OF       2OUTER ITERATIONS
  MAXIMUM CHANGE FOR EACH ITERATION:
   MAX. CHANGE        NODE  MAX. CHANGE        NODE  MAX. CHANGE        NODE  MAX. CHANGE        NODE  MAX. CHANGE        NODE
 ------------------------------------------------------------------------------------------------------------------------------------
   0.31073E-04,       1280  0.94762E-06,       2691

 NO OUTPUT CONTROL FOR STRESS PERIOD        2   TIME STEP      392



          TIME SUMMARY AT END OF TIME STEP       392 IN STRESS PERIOD         2
                    SECONDS     MINUTES      HOURS       DAYS        YEARS
                    -----------------------------------------------------------
   TIME STEP LENGTH  86.400      1.4400     2.40000E-02 1.00000E-03 2.73785E-06
 STRESS PERIOD TIME  33869.      564.48      9.4080     0.39200     1.07324E-03
         TOTAL TIME 1.20269E+05  2004.5      33.408      1.3920     3.81109E-03
1
 ------------------------------------------------------------------------------------------------------------
 
 SOLVING FOR TRANSPORT 

          SEQUENTIAL TRANSPORT ITERATION LOOP NUMBER    1
          -----------------------------------------------

 ------------------------------------------------------------------------------------------------------------------------
     1 CALLS TO SPARSE MATRIX SOLVER PACKAGE IN TRANSPORT TIME STEP     392 STRESS PERIOD       2 SPECIES  1

 TOTAL OF       1OUTER ITERATIONS
  MAXIMUM CHANGE FOR EACH ITERATION:
   MAX. CHANGE        NODE  MAX. CHANGE        NODE  MAX. CHANGE        NODE  MAX. CHANGE        NODE  MAX. CHANGE        NODE
 ------------------------------------------------------------------------------------------------------------------------------------
  -0.54283    ,       1280
     TRANSPORT SOLUTION COMPLETE FOR COMPONENT SPECIES NUMBER    1
     ------------------------------------------------------------

 TRANSPORT SOLUTION COMPLETE FOR ALL SPECIES, SORTING OUTPUT FOR CONCENTRATIONS AND MASS BALANCE
 ----------------------------------------------------------------------------------------------------
     TRANSPORT OUTPUT FOR COMPONENT SPECIES NUMBER    1
     ------------------------------------------------------------
 -------------------------------------------------------------------------------------
 
 SOLVING FOR HEAD 

 Outer-Iteration  Inner-Iteration  Backtracking  Number of        Incoming       Outgoing      Cutoff     Maximum Head Change      Maximum Head Change
     Number           Count           Flag       Backtracks       Residual       Residual      Residual            Value               Location
        1                             0             0          0.492455E-01     0.492455E-01   -1.00000    
        1               12                                                                                       0.492390E-04               1280           GWF-node number
        2                             0             0          0.300758E-06     0.300758E-06   -1.00000    
        2                1                                                                                       0.507452E-06               2801           GWF-node number
     2 CALLS TO SPARSE MATRIX SOLVER PACKAGE  IN FLOW TIME STEP     393 STRESS PERIOD       2

 TOTAL OF       2OUTER ITERATIONS
  MAXIMUM CHANGE FOR EACH ITERATION:
   MAX. CHANGE        NODE  MAX. CHANGE        NODE  MAX. CHANGE        NODE  MAX. CHANGE        NODE  MAX. CHANGE        NODE
 ------------------------------------------------------------------------------------------------------------------------------------
   0.49239E-04,       1280  0.50745E-06,       2801

 NO OUTPUT CONTROL FOR STRESS PERIOD        2   TIME STEP      393



          TIME SUMMARY AT END OF TIME STEP       393 IN STRESS PERIOD         2
                    SECONDS     MINUTES      HOURS       DAYS        YEARS
                    -----------------------------------------------------------
   TIME STEP LENGTH  86.400      1.4400     2.40000E-02 1.00000E-03 2.73785E-06
 STRESS PERIOD TIME  33955.      565.92      9.4320     0.39300     1.07598E-03
         TOTAL TIME 1.20355E+05  2005.9      33.432      1.3930     3.81383E-03
1
 ------------------------------------------------------------------------------------------------------------
 
 SOLVING FOR TRANSPORT 

          SEQUENTIAL TRANSPORT ITERATION LOOP NUMBER    1
          -----------------------------------------------

 ------------------------------------------------------------------------------------------------------------------------
     1 CALLS TO SPARSE MATRIX SOLVER PACKAGE IN TRANSPORT TIME STEP     393 STRESS PERIOD       2 SPECIES  1

 TOTAL OF       1OUTER ITERATIONS
  MAXIMUM CHANGE FOR EACH ITERATION:
   MAX. CHANGE        NODE  MAX. CHANGE        NODE  MAX. CHANGE        NODE  MAX. CHANGE        NODE  MAX. CHANGE        NODE
 ------------------------------------------------------------------------------------------------------------------------------------
  -0.43330    ,       1200
     TRANSPORT SOLUTION COMPLETE FOR COMPONENT SPECIES NUMBER    1
     ------------------------------------------------------------

 TRANSPORT SOLUTION COMPLETE FOR ALL SPECIES, SORTING OUTPUT FOR CONCENTRATIONS AND MASS BALANCE
 ----------------------------------------------------------------------------------------------------
     TRANSPORT OUTPUT FOR COMPONENT SPECIES NUMBER    1
     ------------------------------------------------------------
 -------------------------------------------------------------------------------------
 
 SOLVING FOR HEAD 

 Outer-Iteration  Inner-Iteration  Backtracking  Number of        Incoming       Outgoing      Cutoff     Maximum Head Change      Maximum Head Change
     Number           Count           Flag       Backtracks       Residual       Residual      Residual            Value               Location
        1                             0             0          0.224443E-01     0.224443E-01   -1.00000    
        1                9                                                                                      -0.252220E-04               1438           GWF-node number
        2                             0             0          0.959000E-05     0.959000E-05   -1.00000    
        2                3                                                                                       0.218224E-05                961           GWF-node number
     2 CALLS TO SPARSE MATRIX SOLVER PACKAGE  IN FLOW TIME STEP     394 STRESS PERIOD       2

 TOTAL OF       2OUTER ITERATIONS
  MAXIMUM CHANGE FOR EACH ITERATION:
   MAX. CHANGE        NODE  MAX. CHANGE        NODE  MAX. CHANGE        NODE  MAX. CHANGE        NODE  MAX. CHANGE        NODE
 ------------------------------------------------------------------------------------------------------------------------------------
  -0.25222E-04,       1438  0.21822E-05,        961

 NO OUTPUT CONTROL FOR STRESS PERIOD        2   TIME STEP      394



          TIME SUMMARY AT END OF TIME STEP       394 IN STRESS PERIOD         2
                    SECONDS     MINUTES      HOURS       DAYS        YEARS
                    -----------------------------------------------------------
   TIME STEP LENGTH  86.400      1.4400     2.40000E-02 1.00000E-03 2.73785E-06
 STRESS PERIOD TIME  34042.      567.36      9.4560     0.39400     1.07871E-03
         TOTAL TIME 1.20442E+05  2007.4      33.456      1.3940     3.81656E-03
1
 ------------------------------------------------------------------------------------------------------------
 
 SOLVING FOR TRANSPORT 

          SEQUENTIAL TRANSPORT ITERATION LOOP NUMBER    1
          -----------------------------------------------

 ------------------------------------------------------------------------------------------------------------------------
     1 CALLS TO SPARSE MATRIX SOLVER PACKAGE IN TRANSPORT TIME STEP     394 STRESS PERIOD       2 SPECIES  1

 TOTAL OF       1OUTER ITERATIONS
  MAXIMUM CHANGE FOR EACH ITERATION:
   MAX. CHANGE        NODE  MAX. CHANGE        NODE  MAX. CHANGE        NODE  MAX. CHANGE        NODE  MAX. CHANGE        NODE
 ------------------------------------------------------------------------------------------------------------------------------------
  -0.48805    ,       1200
     TRANSPORT SOLUTION COMPLETE FOR COMPONENT SPECIES NUMBER    1
     ------------------------------------------------------------

 TRANSPORT SOLUTION COMPLETE FOR ALL SPECIES, SORTING OUTPUT FOR CONCENTRATIONS AND MASS BALANCE
 ----------------------------------------------------------------------------------------------------
     TRANSPORT OUTPUT FOR COMPONENT SPECIES NUMBER    1
     ------------------------------------------------------------
 -------------------------------------------------------------------------------------
 
 SOLVING FOR HEAD 

 Outer-Iteration  Inner-Iteration  Backtracking  Number of        Incoming       Outgoing      Cutoff     Maximum Head Change      Maximum Head Change
     Number           Count           Flag       Backtracks       Residual       Residual      Residual            Value               Location
        1                             0             0          0.370814E-01     0.370814E-01   -1.00000    
        1                8                                                                                       0.408333E-04               1200           GWF-node number
        2                             0             0          0.522438E-04     0.522438E-04   -1.00000    
        2                3                                                                                      -0.409913E-05               3155           GWF-node number
     2 CALLS TO SPARSE MATRIX SOLVER PACKAGE  IN FLOW TIME STEP     395 STRESS PERIOD       2

 TOTAL OF       2OUTER ITERATIONS
  MAXIMUM CHANGE FOR EACH ITERATION:
   MAX. CHANGE        NODE  MAX. CHANGE        NODE  MAX. CHANGE        NODE  MAX. CHANGE        NODE  MAX. CHANGE        NODE
 ------------------------------------------------------------------------------------------------------------------------------------
   0.40833E-04,       1200 -0.40991E-05,       3155

 NO OUTPUT CONTROL FOR STRESS PERIOD        2   TIME STEP      395



          TIME SUMMARY AT END OF TIME STEP       395 IN STRESS PERIOD         2
                    SECONDS     MINUTES      HOURS       DAYS        YEARS
                    -----------------------------------------------------------
   TIME STEP LENGTH  86.400      1.4400     2.40000E-02 1.00000E-03 2.73785E-06
 STRESS PERIOD TIME  34128.      568.80      9.4800     0.39500     1.08145E-03
         TOTAL TIME 1.20528E+05  2008.8      33.480      1.3950     3.81930E-03
1
 ------------------------------------------------------------------------------------------------------------
 
 SOLVING FOR TRANSPORT 

          SEQUENTIAL TRANSPORT ITERATION LOOP NUMBER    1
          -----------------------------------------------

 ------------------------------------------------------------------------------------------------------------------------
     1 CALLS TO SPARSE MATRIX SOLVER PACKAGE IN TRANSPORT TIME STEP     395 STRESS PERIOD       2 SPECIES  1

 TOTAL OF       1OUTER ITERATIONS
  MAXIMUM CHANGE FOR EACH ITERATION:
   MAX. CHANGE        NODE  MAX. CHANGE        NODE  MAX. CHANGE        NODE  MAX. CHANGE        NODE  MAX. CHANGE        NODE
 ------------------------------------------------------------------------------------------------------------------------------------
  -0.57409    ,       1200
     TRANSPORT SOLUTION COMPLETE FOR COMPONENT SPECIES NUMBER    1
     ------------------------------------------------------------

 TRANSPORT SOLUTION COMPLETE FOR ALL SPECIES, SORTING OUTPUT FOR CONCENTRATIONS AND MASS BALANCE
 ----------------------------------------------------------------------------------------------------
     TRANSPORT OUTPUT FOR COMPONENT SPECIES NUMBER    1
     ------------------------------------------------------------
 -------------------------------------------------------------------------------------
 
 SOLVING FOR HEAD 

 Outer-Iteration  Inner-Iteration  Backtracking  Number of        Incoming       Outgoing      Cutoff     Maximum Head Change      Maximum Head Change
     Number           Count           Flag       Backtracks       Residual       Residual      Residual            Value               Location
        1                             0             0          0.867968E-01     0.867968E-01   -1.00000    
        1               12                                                                                       0.560784E-04               1200           GWF-node number
        2                             0             0          0.451829E-06     0.451829E-06   -1.00000    
        2                3                                                                                      -0.269510E-06               1441           GWF-node number
     2 CALLS TO SPARSE MATRIX SOLVER PACKAGE  IN FLOW TIME STEP     396 STRESS PERIOD       2

 TOTAL OF       2OUTER ITERATIONS
  MAXIMUM CHANGE FOR EACH ITERATION:
   MAX. CHANGE        NODE  MAX. CHANGE        NODE  MAX. CHANGE        NODE  MAX. CHANGE        NODE  MAX. CHANGE        NODE
 ------------------------------------------------------------------------------------------------------------------------------------
   0.56078E-04,       1200 -0.26951E-06,       1441

 NO OUTPUT CONTROL FOR STRESS PERIOD        2   TIME STEP      396



          TIME SUMMARY AT END OF TIME STEP       396 IN STRESS PERIOD         2
                    SECONDS     MINUTES      HOURS       DAYS        YEARS
                    -----------------------------------------------------------
   TIME STEP LENGTH  86.400      1.4400     2.40000E-02 1.00000E-03 2.73785E-06
 STRESS PERIOD TIME  34214.      570.24      9.5040     0.39600     1.08419E-03
         TOTAL TIME 1.20614E+05  2010.2      33.504      1.3960     3.82204E-03
1
 ------------------------------------------------------------------------------------------------------------
 
 SOLVING FOR TRANSPORT 

          SEQUENTIAL TRANSPORT ITERATION LOOP NUMBER    1
          -----------------------------------------------

 ------------------------------------------------------------------------------------------------------------------------
     1 CALLS TO SPARSE MATRIX SOLVER PACKAGE IN TRANSPORT TIME STEP     396 STRESS PERIOD       2 SPECIES  1

 TOTAL OF       1OUTER ITERATIONS
  MAXIMUM CHANGE FOR EACH ITERATION:
   MAX. CHANGE        NODE  MAX. CHANGE        NODE  MAX. CHANGE        NODE  MAX. CHANGE        NODE  MAX. CHANGE        NODE
 ------------------------------------------------------------------------------------------------------------------------------------
   0.37113    ,       1440
     TRANSPORT SOLUTION COMPLETE FOR COMPONENT SPECIES NUMBER    1
     ------------------------------------------------------------

 TRANSPORT SOLUTION COMPLETE FOR ALL SPECIES, SORTING OUTPUT FOR CONCENTRATIONS AND MASS BALANCE
 ----------------------------------------------------------------------------------------------------
     TRANSPORT OUTPUT FOR COMPONENT SPECIES NUMBER    1
     ------------------------------------------------------------
 -------------------------------------------------------------------------------------
 
 SOLVING FOR HEAD 

 Outer-Iteration  Inner-Iteration  Backtracking  Number of        Incoming       Outgoing      Cutoff     Maximum Head Change      Maximum Head Change
     Number           Count           Flag       Backtracks       Residual       Residual      Residual            Value               Location
        1                             0             0          0.144439E-01     0.144439E-01   -1.00000    
        1               12                                                                                      -0.275927E-04               1440           GWF-node number
        2                             0             0          0.123306E-06     0.123306E-06   -1.00000    
        2                1                                                                                       0.933944E-06               2019           GWF-node number
     2 CALLS TO SPARSE MATRIX SOLVER PACKAGE  IN FLOW TIME STEP     397 STRESS PERIOD       2

 TOTAL OF       2OUTER ITERATIONS
  MAXIMUM CHANGE FOR EACH ITERATION:
   MAX. CHANGE        NODE  MAX. CHANGE        NODE  MAX. CHANGE        NODE  MAX. CHANGE        NODE  MAX. CHANGE        NODE
 ------------------------------------------------------------------------------------------------------------------------------------
  -0.27593E-04,       1440  0.93394E-06,       2019

 NO OUTPUT CONTROL FOR STRESS PERIOD        2   TIME STEP      397



          TIME SUMMARY AT END OF TIME STEP       397 IN STRESS PERIOD         2
                    SECONDS     MINUTES      HOURS       DAYS        YEARS
                    -----------------------------------------------------------
   TIME STEP LENGTH  86.400      1.4400     2.40000E-02 1.00000E-03 2.73785E-06
 STRESS PERIOD TIME  34301.      571.68      9.5280     0.39700     1.08693E-03
         TOTAL TIME 1.20701E+05  2011.7      33.528      1.3970     3.82478E-03
1
 ------------------------------------------------------------------------------------------------------------
 
 SOLVING FOR TRANSPORT 

          SEQUENTIAL TRANSPORT ITERATION LOOP NUMBER    1
          -----------------------------------------------

 ------------------------------------------------------------------------------------------------------------------------
     1 CALLS TO SPARSE MATRIX SOLVER PACKAGE IN TRANSPORT TIME STEP     397 STRESS PERIOD       2 SPECIES  1

 TOTAL OF       1OUTER ITERATIONS
  MAXIMUM CHANGE FOR EACH ITERATION:
   MAX. CHANGE        NODE  MAX. CHANGE        NODE  MAX. CHANGE        NODE  MAX. CHANGE        NODE  MAX. CHANGE        NODE
 ------------------------------------------------------------------------------------------------------------------------------------
   0.39325    ,       1440
     TRANSPORT SOLUTION COMPLETE FOR COMPONENT SPECIES NUMBER    1
     ------------------------------------------------------------

 TRANSPORT SOLUTION COMPLETE FOR ALL SPECIES, SORTING OUTPUT FOR CONCENTRATIONS AND MASS BALANCE
 ----------------------------------------------------------------------------------------------------
     TRANSPORT OUTPUT FOR COMPONENT SPECIES NUMBER    1
     ------------------------------------------------------------
 -------------------------------------------------------------------------------------
 
 SOLVING FOR HEAD 

 Outer-Iteration  Inner-Iteration  Backtracking  Number of        Incoming       Outgoing      Cutoff     Maximum Head Change      Maximum Head Change
     Number           Count           Flag       Backtracks       Residual       Residual      Residual            Value               Location
        1                             0             0          0.914342E-02     0.914342E-02   -1.00000    
        1               12                                                                                      -0.268089E-04               1440           GWF-node number
        2                             0             0          0.849345E-07     0.849345E-07   -1.00000    
        2                1                                                                                      -0.246607E-06               2561           GWF-node number
     2 CALLS TO SPARSE MATRIX SOLVER PACKAGE  IN FLOW TIME STEP     398 STRESS PERIOD       2

 TOTAL OF       2OUTER ITERATIONS
  MAXIMUM CHANGE FOR EACH ITERATION:
   MAX. CHANGE        NODE  MAX. CHANGE        NODE  MAX. CHANGE        NODE  MAX. CHANGE        NODE  MAX. CHANGE        NODE
 ------------------------------------------------------------------------------------------------------------------------------------
  -0.26809E-04,       1440 -0.24661E-06,       2561

 NO OUTPUT CONTROL FOR STRESS PERIOD        2   TIME STEP      398



          TIME SUMMARY AT END OF TIME STEP       398 IN STRESS PERIOD         2
                    SECONDS     MINUTES      HOURS       DAYS        YEARS
                    -----------------------------------------------------------
   TIME STEP LENGTH  86.400      1.4400     2.40000E-02 1.00000E-03 2.73785E-06
 STRESS PERIOD TIME  34387.      573.12      9.5520     0.39800     1.08966E-03
         TOTAL TIME 1.20787E+05  2013.1      33.552      1.3980     3.82752E-03
1
 ------------------------------------------------------------------------------------------------------------
 
 SOLVING FOR TRANSPORT 

          SEQUENTIAL TRANSPORT ITERATION LOOP NUMBER    1
          -----------------------------------------------

 ------------------------------------------------------------------------------------------------------------------------
     1 CALLS TO SPARSE MATRIX SOLVER PACKAGE IN TRANSPORT TIME STEP     398 STRESS PERIOD       2 SPECIES  1

 TOTAL OF       1OUTER ITERATIONS
  MAXIMUM CHANGE FOR EACH ITERATION:
   MAX. CHANGE        NODE  MAX. CHANGE        NODE  MAX. CHANGE        NODE  MAX. CHANGE        NODE  MAX. CHANGE        NODE
 ------------------------------------------------------------------------------------------------------------------------------------
   0.44959    ,       1360
     TRANSPORT SOLUTION COMPLETE FOR COMPONENT SPECIES NUMBER    1
     ------------------------------------------------------------

 TRANSPORT SOLUTION COMPLETE FOR ALL SPECIES, SORTING OUTPUT FOR CONCENTRATIONS AND MASS BALANCE
 ----------------------------------------------------------------------------------------------------
     TRANSPORT OUTPUT FOR COMPONENT SPECIES NUMBER    1
     ------------------------------------------------------------
 -------------------------------------------------------------------------------------
 
 SOLVING FOR HEAD 

 Outer-Iteration  Inner-Iteration  Backtracking  Number of        Incoming       Outgoing      Cutoff     Maximum Head Change      Maximum Head Change
     Number           Count           Flag       Backtracks       Residual       Residual      Residual            Value               Location
        1                             0             0          0.961012E-02     0.961012E-02   -1.00000    
        1               10                                                                                      -0.259764E-04               1360           GWF-node number
        2                             0             0          0.335185E-06     0.335185E-06   -1.00000    
        2                2                                                                                       0.340139E-06                696           GWF-node number
     2 CALLS TO SPARSE MATRIX SOLVER PACKAGE  IN FLOW TIME STEP     399 STRESS PERIOD       2

 TOTAL OF       2OUTER ITERATIONS
  MAXIMUM CHANGE FOR EACH ITERATION:
   MAX. CHANGE        NODE  MAX. CHANGE        NODE  MAX. CHANGE        NODE  MAX. CHANGE        NODE  MAX. CHANGE        NODE
 ------------------------------------------------------------------------------------------------------------------------------------
  -0.25976E-04,       1360  0.34014E-06,        696

 NO OUTPUT CONTROL FOR STRESS PERIOD        2   TIME STEP      399



          TIME SUMMARY AT END OF TIME STEP       399 IN STRESS PERIOD         2
                    SECONDS     MINUTES      HOURS       DAYS        YEARS
                    -----------------------------------------------------------
   TIME STEP LENGTH  86.400      1.4400     2.40000E-02 1.00000E-03 2.73785E-06
 STRESS PERIOD TIME  34474.      574.56      9.5760     0.39900     1.09240E-03
         TOTAL TIME 1.20874E+05  2014.6      33.576      1.3990     3.83025E-03
1
 ------------------------------------------------------------------------------------------------------------
 
 SOLVING FOR TRANSPORT 

          SEQUENTIAL TRANSPORT ITERATION LOOP NUMBER    1
          -----------------------------------------------

 ------------------------------------------------------------------------------------------------------------------------
     1 CALLS TO SPARSE MATRIX SOLVER PACKAGE IN TRANSPORT TIME STEP     399 STRESS PERIOD       2 SPECIES  1

 TOTAL OF       1OUTER ITERATIONS
  MAXIMUM CHANGE FOR EACH ITERATION:
   MAX. CHANGE        NODE  MAX. CHANGE        NODE  MAX. CHANGE        NODE  MAX. CHANGE        NODE  MAX. CHANGE        NODE
 ------------------------------------------------------------------------------------------------------------------------------------
   0.41656    ,       1360
     TRANSPORT SOLUTION COMPLETE FOR COMPONENT SPECIES NUMBER    1
     ------------------------------------------------------------

 TRANSPORT SOLUTION COMPLETE FOR ALL SPECIES, SORTING OUTPUT FOR CONCENTRATIONS AND MASS BALANCE
 ----------------------------------------------------------------------------------------------------
     TRANSPORT OUTPUT FOR COMPONENT SPECIES NUMBER    1
     ------------------------------------------------------------
 -------------------------------------------------------------------------------------
 
 SOLVING FOR HEAD 

 Outer-Iteration  Inner-Iteration  Backtracking  Number of        Incoming       Outgoing      Cutoff     Maximum Head Change      Maximum Head Change
     Number           Count           Flag       Backtracks       Residual       Residual      Residual            Value               Location
        1                             0             0          0.899510E-02     0.899510E-02   -1.00000    
        1               11                                                                                      -0.245615E-04               1360           GWF-node number
        2                             0             0          0.272339E-06     0.272339E-06   -1.00000    
        2                1                                                                                       0.598611E-06               3127           GWF-node number
     2 CALLS TO SPARSE MATRIX SOLVER PACKAGE  IN FLOW TIME STEP     400 STRESS PERIOD       2

 TOTAL OF       2OUTER ITERATIONS
  MAXIMUM CHANGE FOR EACH ITERATION:
   MAX. CHANGE        NODE  MAX. CHANGE        NODE  MAX. CHANGE        NODE  MAX. CHANGE        NODE  MAX. CHANGE        NODE
 ------------------------------------------------------------------------------------------------------------------------------------
  -0.24561E-04,       1360  0.59861E-06,       3127

 NO OUTPUT CONTROL FOR STRESS PERIOD        2   TIME STEP      400



          TIME SUMMARY AT END OF TIME STEP       400 IN STRESS PERIOD         2
                    SECONDS     MINUTES      HOURS       DAYS        YEARS
                    -----------------------------------------------------------
   TIME STEP LENGTH  86.400      1.4400     2.40000E-02 1.00000E-03 2.73785E-06
 STRESS PERIOD TIME  34560.      576.00      9.6000     0.40000     1.09514E-03
         TOTAL TIME 1.20960E+05  2016.0      33.600      1.4000     3.83299E-03
1
 ------------------------------------------------------------------------------------------------------------
 
 SOLVING FOR TRANSPORT 

          SEQUENTIAL TRANSPORT ITERATION LOOP NUMBER    1
          -----------------------------------------------

 ------------------------------------------------------------------------------------------------------------------------
     1 CALLS TO SPARSE MATRIX SOLVER PACKAGE IN TRANSPORT TIME STEP     400 STRESS PERIOD       2 SPECIES  1

 TOTAL OF       1OUTER ITERATIONS
  MAXIMUM CHANGE FOR EACH ITERATION:
   MAX. CHANGE        NODE  MAX. CHANGE        NODE  MAX. CHANGE        NODE  MAX. CHANGE        NODE  MAX. CHANGE        NODE
 ------------------------------------------------------------------------------------------------------------------------------------
   0.40234    ,       1280
     TRANSPORT SOLUTION COMPLETE FOR COMPONENT SPECIES NUMBER    1
     ------------------------------------------------------------

 TRANSPORT SOLUTION COMPLETE FOR ALL SPECIES, SORTING OUTPUT FOR CONCENTRATIONS AND MASS BALANCE
 ----------------------------------------------------------------------------------------------------
     TRANSPORT OUTPUT FOR COMPONENT SPECIES NUMBER    1
     ------------------------------------------------------------
 -------------------------------------------------------------------------------------
 
 SOLVING FOR HEAD 

 Outer-Iteration  Inner-Iteration  Backtracking  Number of        Incoming       Outgoing      Cutoff     Maximum Head Change      Maximum Head Change
     Number           Count           Flag       Backtracks       Residual       Residual      Residual            Value               Location
        1                             0             0          0.735268E-02     0.735268E-02   -1.00000    
        1               11                                                                                       0.197300E-04                790           GWF-node number
        2                             0             0          0.123797E-06     0.123797E-06   -1.00000    
        2                1                                                                                       0.183590E-06               1173           GWF-node number
     2 CALLS TO SPARSE MATRIX SOLVER PACKAGE  IN FLOW TIME STEP     401 STRESS PERIOD       2

 TOTAL OF       2OUTER ITERATIONS
  MAXIMUM CHANGE FOR EACH ITERATION:
   MAX. CHANGE        NODE  MAX. CHANGE        NODE  MAX. CHANGE        NODE  MAX. CHANGE        NODE  MAX. CHANGE        NODE
 ------------------------------------------------------------------------------------------------------------------------------------
   0.19730E-04,        790  0.18359E-06,       1173

 NO OUTPUT CONTROL FOR STRESS PERIOD        2   TIME STEP      401



          TIME SUMMARY AT END OF TIME STEP       401 IN STRESS PERIOD         2
                    SECONDS     MINUTES      HOURS       DAYS        YEARS
                    -----------------------------------------------------------
   TIME STEP LENGTH  86.400      1.4400     2.40000E-02 1.00000E-03 2.73785E-06
 STRESS PERIOD TIME  34646.      577.44      9.6240     0.40100     1.09788E-03
         TOTAL TIME 1.21046E+05  2017.4      33.624      1.4010     3.83573E-03
1
 ------------------------------------------------------------------------------------------------------------
 
 SOLVING FOR TRANSPORT 

          SEQUENTIAL TRANSPORT ITERATION LOOP NUMBER    1
          -----------------------------------------------

 ------------------------------------------------------------------------------------------------------------------------
     1 CALLS TO SPARSE MATRIX SOLVER PACKAGE IN TRANSPORT TIME STEP     401 STRESS PERIOD       2 SPECIES  1

 TOTAL OF       1OUTER ITERATIONS
  MAXIMUM CHANGE FOR EACH ITERATION:
   MAX. CHANGE        NODE  MAX. CHANGE        NODE  MAX. CHANGE        NODE  MAX. CHANGE        NODE  MAX. CHANGE        NODE
 ------------------------------------------------------------------------------------------------------------------------------------
   0.38214    ,       1280
     TRANSPORT SOLUTION COMPLETE FOR COMPONENT SPECIES NUMBER    1
     ------------------------------------------------------------

 TRANSPORT SOLUTION COMPLETE FOR ALL SPECIES, SORTING OUTPUT FOR CONCENTRATIONS AND MASS BALANCE
 ----------------------------------------------------------------------------------------------------
     TRANSPORT OUTPUT FOR COMPONENT SPECIES NUMBER    1
     ------------------------------------------------------------
 -------------------------------------------------------------------------------------
 
 SOLVING FOR HEAD 

 Outer-Iteration  Inner-Iteration  Backtracking  Number of        Incoming       Outgoing      Cutoff     Maximum Head Change      Maximum Head Change
     Number           Count           Flag       Backtracks       Residual       Residual      Residual            Value               Location
        1                             0             0          0.826388E-02     0.826388E-02   -1.00000    
        1               11                                                                                      -0.217053E-04               1280           GWF-node number
        2                             0             0          0.283016E-05     0.283016E-05   -1.00000    
        2                2                                                                                       0.870537E-06               3129           GWF-node number
     2 CALLS TO SPARSE MATRIX SOLVER PACKAGE  IN FLOW TIME STEP     402 STRESS PERIOD       2

 TOTAL OF       2OUTER ITERATIONS
  MAXIMUM CHANGE FOR EACH ITERATION:
   MAX. CHANGE        NODE  MAX. CHANGE        NODE  MAX. CHANGE        NODE  MAX. CHANGE        NODE  MAX. CHANGE        NODE
 ------------------------------------------------------------------------------------------------------------------------------------
  -0.21705E-04,       1280  0.87054E-06,       3129

 NO OUTPUT CONTROL FOR STRESS PERIOD        2   TIME STEP      402



          TIME SUMMARY AT END OF TIME STEP       402 IN STRESS PERIOD         2
                    SECONDS     MINUTES      HOURS       DAYS        YEARS
                    -----------------------------------------------------------
   TIME STEP LENGTH  86.400      1.4400     2.40000E-02 1.00000E-03 2.73785E-06
 STRESS PERIOD TIME  34733.      578.88      9.6480     0.40200     1.10062E-03
         TOTAL TIME 1.21133E+05  2018.9      33.648      1.4020     3.83847E-03
1
 ------------------------------------------------------------------------------------------------------------
 
 SOLVING FOR TRANSPORT 

          SEQUENTIAL TRANSPORT ITERATION LOOP NUMBER    1
          -----------------------------------------------

 ------------------------------------------------------------------------------------------------------------------------
     1 CALLS TO SPARSE MATRIX SOLVER PACKAGE IN TRANSPORT TIME STEP     402 STRESS PERIOD       2 SPECIES  1

 TOTAL OF       1OUTER ITERATIONS
  MAXIMUM CHANGE FOR EACH ITERATION:
   MAX. CHANGE        NODE  MAX. CHANGE        NODE  MAX. CHANGE        NODE  MAX. CHANGE        NODE  MAX. CHANGE        NODE
 ------------------------------------------------------------------------------------------------------------------------------------
   0.32234    ,       1040
     TRANSPORT SOLUTION COMPLETE FOR COMPONENT SPECIES NUMBER    1
     ------------------------------------------------------------

 TRANSPORT SOLUTION COMPLETE FOR ALL SPECIES, SORTING OUTPUT FOR CONCENTRATIONS AND MASS BALANCE
 ----------------------------------------------------------------------------------------------------
     TRANSPORT OUTPUT FOR COMPONENT SPECIES NUMBER    1
     ------------------------------------------------------------
 -------------------------------------------------------------------------------------
 
 SOLVING FOR HEAD 

 Outer-Iteration  Inner-Iteration  Backtracking  Number of        Incoming       Outgoing      Cutoff     Maximum Head Change      Maximum Head Change
     Number           Count           Flag       Backtracks       Residual       Residual      Residual            Value               Location
        1                             0             0          0.677875E-02     0.677875E-02   -1.00000    
        1               10                                                                                      -0.183440E-04               1280           GWF-node number
        2                             0             0          0.253754E-06     0.253754E-06   -1.00000    
        2                1                                                                                       0.266631E-06               1136           GWF-node number
     2 CALLS TO SPARSE MATRIX SOLVER PACKAGE  IN FLOW TIME STEP     403 STRESS PERIOD       2

 TOTAL OF       2OUTER ITERATIONS
  MAXIMUM CHANGE FOR EACH ITERATION:
   MAX. CHANGE        NODE  MAX. CHANGE        NODE  MAX. CHANGE        NODE  MAX. CHANGE        NODE  MAX. CHANGE        NODE
 ------------------------------------------------------------------------------------------------------------------------------------
  -0.18344E-04,       1280  0.26663E-06,       1136

 NO OUTPUT CONTROL FOR STRESS PERIOD        2   TIME STEP      403



          TIME SUMMARY AT END OF TIME STEP       403 IN STRESS PERIOD         2
                    SECONDS     MINUTES      HOURS       DAYS        YEARS
                    -----------------------------------------------------------
   TIME STEP LENGTH  86.400      1.4400     2.40000E-02 1.00000E-03 2.73785E-06
 STRESS PERIOD TIME  34819.      580.32      9.6720     0.40300     1.10335E-03
         TOTAL TIME 1.21219E+05  2020.3      33.672      1.4030     3.84120E-03
1
 ------------------------------------------------------------------------------------------------------------
 
 SOLVING FOR TRANSPORT 

          SEQUENTIAL TRANSPORT ITERATION LOOP NUMBER    1
          -----------------------------------------------

 ------------------------------------------------------------------------------------------------------------------------
     1 CALLS TO SPARSE MATRIX SOLVER PACKAGE IN TRANSPORT TIME STEP     403 STRESS PERIOD       2 SPECIES  1

 TOTAL OF       1OUTER ITERATIONS
  MAXIMUM CHANGE FOR EACH ITERATION:
   MAX. CHANGE        NODE  MAX. CHANGE        NODE  MAX. CHANGE        NODE  MAX. CHANGE        NODE  MAX. CHANGE        NODE
 ------------------------------------------------------------------------------------------------------------------------------------
   0.26817    ,        960
     TRANSPORT SOLUTION COMPLETE FOR COMPONENT SPECIES NUMBER    1
     ------------------------------------------------------------

 TRANSPORT SOLUTION COMPLETE FOR ALL SPECIES, SORTING OUTPUT FOR CONCENTRATIONS AND MASS BALANCE
 ----------------------------------------------------------------------------------------------------
     TRANSPORT OUTPUT FOR COMPONENT SPECIES NUMBER    1
     ------------------------------------------------------------
 -------------------------------------------------------------------------------------
 
 SOLVING FOR HEAD 

 Outer-Iteration  Inner-Iteration  Backtracking  Number of        Incoming       Outgoing      Cutoff     Maximum Head Change      Maximum Head Change
     Number           Count           Flag       Backtracks       Residual       Residual      Residual            Value               Location
        1                             0             0          0.411812E-02     0.411812E-02   -1.00000    
        1               11                                                                                       0.155466E-04               1518           GWF-node number
        2                             0             0          0.244779E-06     0.244779E-06   -1.00000    
        2                1                                                                                      -0.981821E-06               2321           GWF-node number
     2 CALLS TO SPARSE MATRIX SOLVER PACKAGE  IN FLOW TIME STEP     404 STRESS PERIOD       2

 TOTAL OF       2OUTER ITERATIONS
  MAXIMUM CHANGE FOR EACH ITERATION:
   MAX. CHANGE        NODE  MAX. CHANGE        NODE  MAX. CHANGE        NODE  MAX. CHANGE        NODE  MAX. CHANGE        NODE
 ------------------------------------------------------------------------------------------------------------------------------------
   0.15547E-04,       1518 -0.98182E-06,       2321

 NO OUTPUT CONTROL FOR STRESS PERIOD        2   TIME STEP      404



          TIME SUMMARY AT END OF TIME STEP       404 IN STRESS PERIOD         2
                    SECONDS     MINUTES      HOURS       DAYS        YEARS
                    -----------------------------------------------------------
   TIME STEP LENGTH  86.400      1.4400     2.40000E-02 1.00000E-03 2.73785E-06
 STRESS PERIOD TIME  34906.      581.76      9.6960     0.40400     1.10609E-03
         TOTAL TIME 1.21306E+05  2021.8      33.696      1.4040     3.84394E-03
1
 ------------------------------------------------------------------------------------------------------------
 
 SOLVING FOR TRANSPORT 

          SEQUENTIAL TRANSPORT ITERATION LOOP NUMBER    1
          -----------------------------------------------

 ------------------------------------------------------------------------------------------------------------------------
     1 CALLS TO SPARSE MATRIX SOLVER PACKAGE IN TRANSPORT TIME STEP     404 STRESS PERIOD       2 SPECIES  1

 TOTAL OF       1OUTER ITERATIONS
  MAXIMUM CHANGE FOR EACH ITERATION:
   MAX. CHANGE        NODE  MAX. CHANGE        NODE  MAX. CHANGE        NODE  MAX. CHANGE        NODE  MAX. CHANGE        NODE
 ------------------------------------------------------------------------------------------------------------------------------------
   0.21052    ,        880
     TRANSPORT SOLUTION COMPLETE FOR COMPONENT SPECIES NUMBER    1
     ------------------------------------------------------------

 TRANSPORT SOLUTION COMPLETE FOR ALL SPECIES, SORTING OUTPUT FOR CONCENTRATIONS AND MASS BALANCE
 ----------------------------------------------------------------------------------------------------
     TRANSPORT OUTPUT FOR COMPONENT SPECIES NUMBER    1
     ------------------------------------------------------------
 -------------------------------------------------------------------------------------
 
 SOLVING FOR HEAD 

 Outer-Iteration  Inner-Iteration  Backtracking  Number of        Incoming       Outgoing      Cutoff     Maximum Head Change      Maximum Head Change
     Number           Count           Flag       Backtracks       Residual       Residual      Residual            Value               Location
        1                             0             0          0.299606E-02     0.299606E-02   -1.00000    
        1               10                                                                                       0.171478E-04               1517           GWF-node number
        2                             0             0          0.286655E-06     0.286655E-06   -1.00000    
        2                1                                                                                      -0.315129E-06               3121           GWF-node number
     2 CALLS TO SPARSE MATRIX SOLVER PACKAGE  IN FLOW TIME STEP     405 STRESS PERIOD       2

 TOTAL OF       2OUTER ITERATIONS
  MAXIMUM CHANGE FOR EACH ITERATION:
   MAX. CHANGE        NODE  MAX. CHANGE        NODE  MAX. CHANGE        NODE  MAX. CHANGE        NODE  MAX. CHANGE        NODE
 ------------------------------------------------------------------------------------------------------------------------------------
   0.17148E-04,       1517 -0.31513E-06,       3121

 NO OUTPUT CONTROL FOR STRESS PERIOD        2   TIME STEP      405



          TIME SUMMARY AT END OF TIME STEP       405 IN STRESS PERIOD         2
                    SECONDS     MINUTES      HOURS       DAYS        YEARS
                    -----------------------------------------------------------
   TIME STEP LENGTH  86.400      1.4400     2.40000E-02 1.00000E-03 2.73785E-06
 STRESS PERIOD TIME  34992.      583.20      9.7200     0.40500     1.10883E-03
         TOTAL TIME 1.21392E+05  2023.2      33.720      1.4050     3.84668E-03
1
 ------------------------------------------------------------------------------------------------------------
 
 SOLVING FOR TRANSPORT 

          SEQUENTIAL TRANSPORT ITERATION LOOP NUMBER    1
          -----------------------------------------------

 ------------------------------------------------------------------------------------------------------------------------
     1 CALLS TO SPARSE MATRIX SOLVER PACKAGE IN TRANSPORT TIME STEP     405 STRESS PERIOD       2 SPECIES  1

 TOTAL OF       1OUTER ITERATIONS
  MAXIMUM CHANGE FOR EACH ITERATION:
   MAX. CHANGE        NODE  MAX. CHANGE        NODE  MAX. CHANGE        NODE  MAX. CHANGE        NODE  MAX. CHANGE        NODE
 ------------------------------------------------------------------------------------------------------------------------------------
   0.15639    ,        880
     TRANSPORT SOLUTION COMPLETE FOR COMPONENT SPECIES NUMBER    1
     ------------------------------------------------------------

 TRANSPORT SOLUTION COMPLETE FOR ALL SPECIES, SORTING OUTPUT FOR CONCENTRATIONS AND MASS BALANCE
 ----------------------------------------------------------------------------------------------------
     TRANSPORT OUTPUT FOR COMPONENT SPECIES NUMBER    1
     ------------------------------------------------------------
 -------------------------------------------------------------------------------------
 
 SOLVING FOR HEAD 

 Outer-Iteration  Inner-Iteration  Backtracking  Number of        Incoming       Outgoing      Cutoff     Maximum Head Change      Maximum Head Change
     Number           Count           Flag       Backtracks       Residual       Residual      Residual            Value               Location
        1                             0             0          0.347148E-02     0.347148E-02   -1.00000    
        1               10                                                                                       0.179311E-04               1438           GWF-node number
        2                             0             0          0.395782E-06     0.395782E-06   -1.00000    
        2                1                                                                                      -0.408533E-06               2043           GWF-node number
     2 CALLS TO SPARSE MATRIX SOLVER PACKAGE  IN FLOW TIME STEP     406 STRESS PERIOD       2

 TOTAL OF       2OUTER ITERATIONS
  MAXIMUM CHANGE FOR EACH ITERATION:
   MAX. CHANGE        NODE  MAX. CHANGE        NODE  MAX. CHANGE        NODE  MAX. CHANGE        NODE  MAX. CHANGE        NODE
 ------------------------------------------------------------------------------------------------------------------------------------
   0.17931E-04,       1438 -0.40853E-06,       2043

 NO OUTPUT CONTROL FOR STRESS PERIOD        2   TIME STEP      406



          TIME SUMMARY AT END OF TIME STEP       406 IN STRESS PERIOD         2
                    SECONDS     MINUTES      HOURS       DAYS        YEARS
                    -----------------------------------------------------------
   TIME STEP LENGTH  86.400      1.4400     2.40000E-02 1.00000E-03 2.73785E-06
 STRESS PERIOD TIME  35078.      584.64      9.7440     0.40600     1.11157E-03
         TOTAL TIME 1.21478E+05  2024.6      33.744      1.4060     3.84942E-03
1
 ------------------------------------------------------------------------------------------------------------
 
 SOLVING FOR TRANSPORT 

          SEQUENTIAL TRANSPORT ITERATION LOOP NUMBER    1
          -----------------------------------------------

 ------------------------------------------------------------------------------------------------------------------------
     1 CALLS TO SPARSE MATRIX SOLVER PACKAGE IN TRANSPORT TIME STEP     406 STRESS PERIOD       2 SPECIES  1

 TOTAL OF       1OUTER ITERATIONS
  MAXIMUM CHANGE FOR EACH ITERATION:
   MAX. CHANGE        NODE  MAX. CHANGE        NODE  MAX. CHANGE        NODE  MAX. CHANGE        NODE  MAX. CHANGE        NODE
 ------------------------------------------------------------------------------------------------------------------------------------
  -0.17124    ,       1520
     TRANSPORT SOLUTION COMPLETE FOR COMPONENT SPECIES NUMBER    1
     ------------------------------------------------------------

 TRANSPORT SOLUTION COMPLETE FOR ALL SPECIES, SORTING OUTPUT FOR CONCENTRATIONS AND MASS BALANCE
 ----------------------------------------------------------------------------------------------------
     TRANSPORT OUTPUT FOR COMPONENT SPECIES NUMBER    1
     ------------------------------------------------------------
 -------------------------------------------------------------------------------------
 
 SOLVING FOR HEAD 

 Outer-Iteration  Inner-Iteration  Backtracking  Number of        Incoming       Outgoing      Cutoff     Maximum Head Change      Maximum Head Change
     Number           Count           Flag       Backtracks       Residual       Residual      Residual            Value               Location
        1                             0             0          0.389360E-02     0.389360E-02   -1.00000    
        1               10                                                                                       0.197319E-04               1438           GWF-node number
        2                             0             0          0.627489E-06     0.627489E-06   -1.00000    
        2                3                                                                                       0.148927E-06               1519           GWF-node number
     2 CALLS TO SPARSE MATRIX SOLVER PACKAGE  IN FLOW TIME STEP     407 STRESS PERIOD       2

 TOTAL OF       2OUTER ITERATIONS
  MAXIMUM CHANGE FOR EACH ITERATION:
   MAX. CHANGE        NODE  MAX. CHANGE        NODE  MAX. CHANGE        NODE  MAX. CHANGE        NODE  MAX. CHANGE        NODE
 ------------------------------------------------------------------------------------------------------------------------------------
   0.19732E-04,       1438  0.14893E-06,       1519

 NO OUTPUT CONTROL FOR STRESS PERIOD        2   TIME STEP      407



          TIME SUMMARY AT END OF TIME STEP       407 IN STRESS PERIOD         2
                    SECONDS     MINUTES      HOURS       DAYS        YEARS
                    -----------------------------------------------------------
   TIME STEP LENGTH  86.400      1.4400     2.40000E-02 1.00000E-03 2.73785E-06
 STRESS PERIOD TIME  35165.      586.08      9.7680     0.40700     1.11431E-03
         TOTAL TIME 1.21565E+05  2026.1      33.768      1.4070     3.85216E-03
1
 ------------------------------------------------------------------------------------------------------------
 
 SOLVING FOR TRANSPORT 

          SEQUENTIAL TRANSPORT ITERATION LOOP NUMBER    1
          -----------------------------------------------

 ------------------------------------------------------------------------------------------------------------------------
     1 CALLS TO SPARSE MATRIX SOLVER PACKAGE IN TRANSPORT TIME STEP     407 STRESS PERIOD       2 SPECIES  1

 TOTAL OF       1OUTER ITERATIONS
  MAXIMUM CHANGE FOR EACH ITERATION:
   MAX. CHANGE        NODE  MAX. CHANGE        NODE  MAX. CHANGE        NODE  MAX. CHANGE        NODE  MAX. CHANGE        NODE
 ------------------------------------------------------------------------------------------------------------------------------------
  -0.21204    ,       1520
     TRANSPORT SOLUTION COMPLETE FOR COMPONENT SPECIES NUMBER    1
     ------------------------------------------------------------

 TRANSPORT SOLUTION COMPLETE FOR ALL SPECIES, SORTING OUTPUT FOR CONCENTRATIONS AND MASS BALANCE
 ----------------------------------------------------------------------------------------------------
     TRANSPORT OUTPUT FOR COMPONENT SPECIES NUMBER    1
     ------------------------------------------------------------
 -------------------------------------------------------------------------------------
 
 SOLVING FOR HEAD 

 Outer-Iteration  Inner-Iteration  Backtracking  Number of        Incoming       Outgoing      Cutoff     Maximum Head Change      Maximum Head Change
     Number           Count           Flag       Backtracks       Residual       Residual      Residual            Value               Location
        1                             0             0          0.465952E-02     0.465952E-02   -1.00000    
        1               10                                                                                       0.192511E-04               1438           GWF-node number
        2                             0             0          0.981947E-06     0.981947E-06   -1.00000    
        2                2                                                                                       0.110197E-05               3130           GWF-node number
     2 CALLS TO SPARSE MATRIX SOLVER PACKAGE  IN FLOW TIME STEP     408 STRESS PERIOD       2

 TOTAL OF       2OUTER ITERATIONS
  MAXIMUM CHANGE FOR EACH ITERATION:
   MAX. CHANGE        NODE  MAX. CHANGE        NODE  MAX. CHANGE        NODE  MAX. CHANGE        NODE  MAX. CHANGE        NODE
 ------------------------------------------------------------------------------------------------------------------------------------
   0.19251E-04,       1438  0.11020E-05,       3130

 NO OUTPUT CONTROL FOR STRESS PERIOD        2   TIME STEP      408



          TIME SUMMARY AT END OF TIME STEP       408 IN STRESS PERIOD         2
                    SECONDS     MINUTES      HOURS       DAYS        YEARS
                    -----------------------------------------------------------
   TIME STEP LENGTH  86.400      1.4400     2.40000E-02 1.00000E-03 2.73785E-06
 STRESS PERIOD TIME  35251.      587.52      9.7920     0.40800     1.11704E-03
         TOTAL TIME 1.21651E+05  2027.5      33.792      1.4080     3.85489E-03
1
 ------------------------------------------------------------------------------------------------------------
 
 SOLVING FOR TRANSPORT 

          SEQUENTIAL TRANSPORT ITERATION LOOP NUMBER    1
          -----------------------------------------------

 ------------------------------------------------------------------------------------------------------------------------
     1 CALLS TO SPARSE MATRIX SOLVER PACKAGE IN TRANSPORT TIME STEP     408 STRESS PERIOD       2 SPECIES  1

 TOTAL OF       1OUTER ITERATIONS
  MAXIMUM CHANGE FOR EACH ITERATION:
   MAX. CHANGE        NODE  MAX. CHANGE        NODE  MAX. CHANGE        NODE  MAX. CHANGE        NODE  MAX. CHANGE        NODE
 ------------------------------------------------------------------------------------------------------------------------------------
  -0.26091    ,       1440
     TRANSPORT SOLUTION COMPLETE FOR COMPONENT SPECIES NUMBER    1
     ------------------------------------------------------------

 TRANSPORT SOLUTION COMPLETE FOR ALL SPECIES, SORTING OUTPUT FOR CONCENTRATIONS AND MASS BALANCE
 ----------------------------------------------------------------------------------------------------
     TRANSPORT OUTPUT FOR COMPONENT SPECIES NUMBER    1
     ------------------------------------------------------------
 -------------------------------------------------------------------------------------
 
 SOLVING FOR HEAD 

 Outer-Iteration  Inner-Iteration  Backtracking  Number of        Incoming       Outgoing      Cutoff     Maximum Head Change      Maximum Head Change
     Number           Count           Flag       Backtracks       Residual       Residual      Residual            Value               Location
        1                             0             0          0.580800E-02     0.580800E-02   -1.00000    
        1                8                                                                                       0.206236E-04               1438           GWF-node number
        2                             0             0          0.787147E-05     0.787147E-05   -1.00000    
        2                2                                                                                      -0.238515E-05               2481           GWF-node number
     2 CALLS TO SPARSE MATRIX SOLVER PACKAGE  IN FLOW TIME STEP     409 STRESS PERIOD       2

 TOTAL OF       2OUTER ITERATIONS
  MAXIMUM CHANGE FOR EACH ITERATION:
   MAX. CHANGE        NODE  MAX. CHANGE        NODE  MAX. CHANGE        NODE  MAX. CHANGE        NODE  MAX. CHANGE        NODE
 ------------------------------------------------------------------------------------------------------------------------------------
   0.20624E-04,       1438 -0.23851E-05,       2481

 NO OUTPUT CONTROL FOR STRESS PERIOD        2   TIME STEP      409



          TIME SUMMARY AT END OF TIME STEP       409 IN STRESS PERIOD         2
                    SECONDS     MINUTES      HOURS       DAYS        YEARS
                    -----------------------------------------------------------
   TIME STEP LENGTH  86.400      1.4400     2.40000E-02 1.00000E-03 2.73785E-06
 STRESS PERIOD TIME  35338.      588.96      9.8160     0.40900     1.11978E-03
         TOTAL TIME 1.21738E+05  2029.0      33.816      1.4090     3.85763E-03
1
 ------------------------------------------------------------------------------------------------------------
 
 SOLVING FOR TRANSPORT 

          SEQUENTIAL TRANSPORT ITERATION LOOP NUMBER    1
          -----------------------------------------------

 ------------------------------------------------------------------------------------------------------------------------
     1 CALLS TO SPARSE MATRIX SOLVER PACKAGE IN TRANSPORT TIME STEP     409 STRESS PERIOD       2 SPECIES  1

 TOTAL OF       1OUTER ITERATIONS
  MAXIMUM CHANGE FOR EACH ITERATION:
   MAX. CHANGE        NODE  MAX. CHANGE        NODE  MAX. CHANGE        NODE  MAX. CHANGE        NODE  MAX. CHANGE        NODE
 ------------------------------------------------------------------------------------------------------------------------------------
  -0.31161    ,       1440
     TRANSPORT SOLUTION COMPLETE FOR COMPONENT SPECIES NUMBER    1
     ------------------------------------------------------------

 TRANSPORT SOLUTION COMPLETE FOR ALL SPECIES, SORTING OUTPUT FOR CONCENTRATIONS AND MASS BALANCE
 ----------------------------------------------------------------------------------------------------
     TRANSPORT OUTPUT FOR COMPONENT SPECIES NUMBER    1
     ------------------------------------------------------------
 -------------------------------------------------------------------------------------
 
 SOLVING FOR HEAD 

 Outer-Iteration  Inner-Iteration  Backtracking  Number of        Incoming       Outgoing      Cutoff     Maximum Head Change      Maximum Head Change
     Number           Count           Flag       Backtracks       Residual       Residual      Residual            Value               Location
        1                             0             0          0.823209E-02     0.823209E-02   -1.00000    
        1               12                                                                                       0.248020E-04               1359           GWF-node number
        2                             0             0          0.347624E-07     0.347624E-07   -1.00000    
        2                1                                                                                       0.789803E-07               3127           GWF-node number
     2 CALLS TO SPARSE MATRIX SOLVER PACKAGE  IN FLOW TIME STEP     410 STRESS PERIOD       2

 TOTAL OF       2OUTER ITERATIONS
  MAXIMUM CHANGE FOR EACH ITERATION:
   MAX. CHANGE        NODE  MAX. CHANGE        NODE  MAX. CHANGE        NODE  MAX. CHANGE        NODE  MAX. CHANGE        NODE
 ------------------------------------------------------------------------------------------------------------------------------------
   0.24802E-04,       1359  0.78980E-07,       3127

 NO OUTPUT CONTROL FOR STRESS PERIOD        2   TIME STEP      410



          TIME SUMMARY AT END OF TIME STEP       410 IN STRESS PERIOD         2
                    SECONDS     MINUTES      HOURS       DAYS        YEARS
                    -----------------------------------------------------------
   TIME STEP LENGTH  86.400      1.4400     2.40000E-02 1.00000E-03 2.73785E-06
 STRESS PERIOD TIME  35424.      590.40      9.8400     0.41000     1.12252E-03
         TOTAL TIME 1.21824E+05  2030.4      33.840      1.4100     3.86037E-03
1
 ------------------------------------------------------------------------------------------------------------
 
 SOLVING FOR TRANSPORT 

          SEQUENTIAL TRANSPORT ITERATION LOOP NUMBER    1
          -----------------------------------------------

 ------------------------------------------------------------------------------------------------------------------------
     1 CALLS TO SPARSE MATRIX SOLVER PACKAGE IN TRANSPORT TIME STEP     410 STRESS PERIOD       2 SPECIES  1

 TOTAL OF       1OUTER ITERATIONS
  MAXIMUM CHANGE FOR EACH ITERATION:
   MAX. CHANGE        NODE  MAX. CHANGE        NODE  MAX. CHANGE        NODE  MAX. CHANGE        NODE  MAX. CHANGE        NODE
 ------------------------------------------------------------------------------------------------------------------------------------
  -0.30628    ,       1360
     TRANSPORT SOLUTION COMPLETE FOR COMPONENT SPECIES NUMBER    1
     ------------------------------------------------------------

 TRANSPORT SOLUTION COMPLETE FOR ALL SPECIES, SORTING OUTPUT FOR CONCENTRATIONS AND MASS BALANCE
 ----------------------------------------------------------------------------------------------------
     TRANSPORT OUTPUT FOR COMPONENT SPECIES NUMBER    1
     ------------------------------------------------------------
 -------------------------------------------------------------------------------------
 
 SOLVING FOR HEAD 

 Outer-Iteration  Inner-Iteration  Backtracking  Number of        Incoming       Outgoing      Cutoff     Maximum Head Change      Maximum Head Change
     Number           Count           Flag       Backtracks       Residual       Residual      Residual            Value               Location
        1                             0             0          0.799461E-02     0.799461E-02   -1.00000    
        1               11                                                                                       0.276300E-04               1359           GWF-node number
        2                             0             0          0.302747E-06     0.302747E-06   -1.00000    
        2                1                                                                                      -0.895889E-06               2562           GWF-node number
     2 CALLS TO SPARSE MATRIX SOLVER PACKAGE  IN FLOW TIME STEP     411 STRESS PERIOD       2

 TOTAL OF       2OUTER ITERATIONS
  MAXIMUM CHANGE FOR EACH ITERATION:
   MAX. CHANGE        NODE  MAX. CHANGE        NODE  MAX. CHANGE        NODE  MAX. CHANGE        NODE  MAX. CHANGE        NODE
 ------------------------------------------------------------------------------------------------------------------------------------
   0.27630E-04,       1359 -0.89589E-06,       2562

 NO OUTPUT CONTROL FOR STRESS PERIOD        2   TIME STEP      411



          TIME SUMMARY AT END OF TIME STEP       411 IN STRESS PERIOD         2
                    SECONDS     MINUTES      HOURS       DAYS        YEARS
                    -----------------------------------------------------------
   TIME STEP LENGTH  86.400      1.4400     2.40000E-02 1.00000E-03 2.73785E-06
 STRESS PERIOD TIME  35510.      591.84      9.8640     0.41100     1.12526E-03
         TOTAL TIME 1.21910E+05  2031.8      33.864      1.4110     3.86311E-03
1
 ------------------------------------------------------------------------------------------------------------
 
 SOLVING FOR TRANSPORT 

          SEQUENTIAL TRANSPORT ITERATION LOOP NUMBER    1
          -----------------------------------------------

 ------------------------------------------------------------------------------------------------------------------------
     1 CALLS TO SPARSE MATRIX SOLVER PACKAGE IN TRANSPORT TIME STEP     411 STRESS PERIOD       2 SPECIES  1

 TOTAL OF       1OUTER ITERATIONS
  MAXIMUM CHANGE FOR EACH ITERATION:
   MAX. CHANGE        NODE  MAX. CHANGE        NODE  MAX. CHANGE        NODE  MAX. CHANGE        NODE  MAX. CHANGE        NODE
 ------------------------------------------------------------------------------------------------------------------------------------
  -0.38428    ,       1360
     TRANSPORT SOLUTION COMPLETE FOR COMPONENT SPECIES NUMBER    1
     ------------------------------------------------------------

 TRANSPORT SOLUTION COMPLETE FOR ALL SPECIES, SORTING OUTPUT FOR CONCENTRATIONS AND MASS BALANCE
 ----------------------------------------------------------------------------------------------------
     TRANSPORT OUTPUT FOR COMPONENT SPECIES NUMBER    1
     ------------------------------------------------------------
 -------------------------------------------------------------------------------------
 
 SOLVING FOR HEAD 

 Outer-Iteration  Inner-Iteration  Backtracking  Number of        Incoming       Outgoing      Cutoff     Maximum Head Change      Maximum Head Change
     Number           Count           Flag       Backtracks       Residual       Residual      Residual            Value               Location
        1                             0             0          0.148873E-01     0.148873E-01   -1.00000    
        1                9                                                                                       0.317052E-04               1360           GWF-node number
        2                             0             0          0.383750E-05     0.383750E-05   -1.00000    
        2                2                                                                                      -0.190117E-05               1393           GWF-node number
     2 CALLS TO SPARSE MATRIX SOLVER PACKAGE  IN FLOW TIME STEP     412 STRESS PERIOD       2

 TOTAL OF       2OUTER ITERATIONS
  MAXIMUM CHANGE FOR EACH ITERATION:
   MAX. CHANGE        NODE  MAX. CHANGE        NODE  MAX. CHANGE        NODE  MAX. CHANGE        NODE  MAX. CHANGE        NODE
 ------------------------------------------------------------------------------------------------------------------------------------
   0.31705E-04,       1360 -0.19012E-05,       1393

 NO OUTPUT CONTROL FOR STRESS PERIOD        2   TIME STEP      412



          TIME SUMMARY AT END OF TIME STEP       412 IN STRESS PERIOD         2
                    SECONDS     MINUTES      HOURS       DAYS        YEARS
                    -----------------------------------------------------------
   TIME STEP LENGTH  86.400      1.4400     2.40000E-02 1.00000E-03 2.73785E-06
 STRESS PERIOD TIME  35597.      593.28      9.8880     0.41200     1.12799E-03
         TOTAL TIME 1.21997E+05  2033.3      33.888      1.4120     3.86584E-03
1
 ------------------------------------------------------------------------------------------------------------
 
 SOLVING FOR TRANSPORT 

          SEQUENTIAL TRANSPORT ITERATION LOOP NUMBER    1
          -----------------------------------------------

 ------------------------------------------------------------------------------------------------------------------------
     1 CALLS TO SPARSE MATRIX SOLVER PACKAGE IN TRANSPORT TIME STEP     412 STRESS PERIOD       2 SPECIES  1

 TOTAL OF       1OUTER ITERATIONS
  MAXIMUM CHANGE FOR EACH ITERATION:
   MAX. CHANGE        NODE  MAX. CHANGE        NODE  MAX. CHANGE        NODE  MAX. CHANGE        NODE  MAX. CHANGE        NODE
 ------------------------------------------------------------------------------------------------------------------------------------
  -0.36977    ,       1360
     TRANSPORT SOLUTION COMPLETE FOR COMPONENT SPECIES NUMBER    1
     ------------------------------------------------------------

 TRANSPORT SOLUTION COMPLETE FOR ALL SPECIES, SORTING OUTPUT FOR CONCENTRATIONS AND MASS BALANCE
 ----------------------------------------------------------------------------------------------------
     TRANSPORT OUTPUT FOR COMPONENT SPECIES NUMBER    1
     ------------------------------------------------------------
 -------------------------------------------------------------------------------------
 
 SOLVING FOR HEAD 

 Outer-Iteration  Inner-Iteration  Backtracking  Number of        Incoming       Outgoing      Cutoff     Maximum Head Change      Maximum Head Change
     Number           Count           Flag       Backtracks       Residual       Residual      Residual            Value               Location
        1                             0             0          0.146430E-01     0.146430E-01   -1.00000    
        1                7                                                                                       0.297422E-04               1360           GWF-node number
        2                             0             0          0.316704E-04     0.316704E-04   -1.00000    
        2                4                                                                                      -0.412004E-05               2321           GWF-node number
     2 CALLS TO SPARSE MATRIX SOLVER PACKAGE  IN FLOW TIME STEP     413 STRESS PERIOD       2

 TOTAL OF       2OUTER ITERATIONS
  MAXIMUM CHANGE FOR EACH ITERATION:
   MAX. CHANGE        NODE  MAX. CHANGE        NODE  MAX. CHANGE        NODE  MAX. CHANGE        NODE  MAX. CHANGE        NODE
 ------------------------------------------------------------------------------------------------------------------------------------
   0.29742E-04,       1360 -0.41200E-05,       2321

 NO OUTPUT CONTROL FOR STRESS PERIOD        2   TIME STEP      413



          TIME SUMMARY AT END OF TIME STEP       413 IN STRESS PERIOD         2
                    SECONDS     MINUTES      HOURS       DAYS        YEARS
                    -----------------------------------------------------------
   TIME STEP LENGTH  86.400      1.4400     2.40000E-02 1.00000E-03 2.73785E-06
 STRESS PERIOD TIME  35683.      594.72      9.9120     0.41300     1.13073E-03
         TOTAL TIME 1.22083E+05  2034.7      33.912      1.4130     3.86858E-03
1
 ------------------------------------------------------------------------------------------------------------
 
 SOLVING FOR TRANSPORT 

          SEQUENTIAL TRANSPORT ITERATION LOOP NUMBER    1
          -----------------------------------------------

 ------------------------------------------------------------------------------------------------------------------------
     1 CALLS TO SPARSE MATRIX SOLVER PACKAGE IN TRANSPORT TIME STEP     413 STRESS PERIOD       2 SPECIES  1

 TOTAL OF       1OUTER ITERATIONS
  MAXIMUM CHANGE FOR EACH ITERATION:
   MAX. CHANGE        NODE  MAX. CHANGE        NODE  MAX. CHANGE        NODE  MAX. CHANGE        NODE  MAX. CHANGE        NODE
 ------------------------------------------------------------------------------------------------------------------------------------
  -0.30277    ,       1280
     TRANSPORT SOLUTION COMPLETE FOR COMPONENT SPECIES NUMBER    1
     ------------------------------------------------------------

 TRANSPORT SOLUTION COMPLETE FOR ALL SPECIES, SORTING OUTPUT FOR CONCENTRATIONS AND MASS BALANCE
 ----------------------------------------------------------------------------------------------------
     TRANSPORT OUTPUT FOR COMPONENT SPECIES NUMBER    1
     ------------------------------------------------------------
 -------------------------------------------------------------------------------------
 
 SOLVING FOR HEAD 

 Outer-Iteration  Inner-Iteration  Backtracking  Number of        Incoming       Outgoing      Cutoff     Maximum Head Change      Maximum Head Change
     Number           Count           Flag       Backtracks       Residual       Residual      Residual            Value               Location
        1                             0             0          0.726232E-02     0.726232E-02   -1.00000    
        1                9                                                                                       0.239597E-04               1279           GWF-node number
        2                             0             0          0.177512E-05     0.177512E-05   -1.00000    
        2                2                                                                                       0.502689E-06                373           GWF-node number
     2 CALLS TO SPARSE MATRIX SOLVER PACKAGE  IN FLOW TIME STEP     414 STRESS PERIOD       2

 TOTAL OF       2OUTER ITERATIONS
  MAXIMUM CHANGE FOR EACH ITERATION:
   MAX. CHANGE        NODE  MAX. CHANGE        NODE  MAX. CHANGE        NODE  MAX. CHANGE        NODE  MAX. CHANGE        NODE
 ------------------------------------------------------------------------------------------------------------------------------------
   0.23960E-04,       1279  0.50269E-06,        373

 NO OUTPUT CONTROL FOR STRESS PERIOD        2   TIME STEP      414



          TIME SUMMARY AT END OF TIME STEP       414 IN STRESS PERIOD         2
                    SECONDS     MINUTES      HOURS       DAYS        YEARS
                    -----------------------------------------------------------
   TIME STEP LENGTH  86.400      1.4400     2.40000E-02 1.00000E-03 2.73785E-06
 STRESS PERIOD TIME  35770.      596.16      9.9360     0.41400     1.13347E-03
         TOTAL TIME 1.22170E+05  2036.2      33.936      1.4140     3.87132E-03
1
 ------------------------------------------------------------------------------------------------------------
 
 SOLVING FOR TRANSPORT 

          SEQUENTIAL TRANSPORT ITERATION LOOP NUMBER    1
          -----------------------------------------------

 ------------------------------------------------------------------------------------------------------------------------
     1 CALLS TO SPARSE MATRIX SOLVER PACKAGE IN TRANSPORT TIME STEP     414 STRESS PERIOD       2 SPECIES  1

 TOTAL OF       1OUTER ITERATIONS
  MAXIMUM CHANGE FOR EACH ITERATION:
   MAX. CHANGE        NODE  MAX. CHANGE        NODE  MAX. CHANGE        NODE  MAX. CHANGE        NODE  MAX. CHANGE        NODE
 ------------------------------------------------------------------------------------------------------------------------------------
  -0.39291    ,       1280
     TRANSPORT SOLUTION COMPLETE FOR COMPONENT SPECIES NUMBER    1
     ------------------------------------------------------------

 TRANSPORT SOLUTION COMPLETE FOR ALL SPECIES, SORTING OUTPUT FOR CONCENTRATIONS AND MASS BALANCE
 ----------------------------------------------------------------------------------------------------
     TRANSPORT OUTPUT FOR COMPONENT SPECIES NUMBER    1
     ------------------------------------------------------------
 -------------------------------------------------------------------------------------
 
 SOLVING FOR HEAD 

 Outer-Iteration  Inner-Iteration  Backtracking  Number of        Incoming       Outgoing      Cutoff     Maximum Head Change      Maximum Head Change
     Number           Count           Flag       Backtracks       Residual       Residual      Residual            Value               Location
        1                             0             0          0.173197E-01     0.173197E-01   -1.00000    
        1               12                                                                                       0.316943E-04               1280           GWF-node number
        2                             0             0          0.154593E-06     0.154593E-06   -1.00000    
        2                1                                                                                       0.348334E-06               2729           GWF-node number
     2 CALLS TO SPARSE MATRIX SOLVER PACKAGE  IN FLOW TIME STEP     415 STRESS PERIOD       2

 TOTAL OF       2OUTER ITERATIONS
  MAXIMUM CHANGE FOR EACH ITERATION:
   MAX. CHANGE        NODE  MAX. CHANGE        NODE  MAX. CHANGE        NODE  MAX. CHANGE        NODE  MAX. CHANGE        NODE
 ------------------------------------------------------------------------------------------------------------------------------------
   0.31694E-04,       1280  0.34833E-06,       2729

 NO OUTPUT CONTROL FOR STRESS PERIOD        2   TIME STEP      415



          TIME SUMMARY AT END OF TIME STEP       415 IN STRESS PERIOD         2
                    SECONDS     MINUTES      HOURS       DAYS        YEARS
                    -----------------------------------------------------------
   TIME STEP LENGTH  86.400      1.4400     2.40000E-02 1.00000E-03 2.73785E-06
 STRESS PERIOD TIME  35856.      597.60      9.9600     0.41500     1.13621E-03
         TOTAL TIME 1.22256E+05  2037.6      33.960      1.4150     3.87406E-03
1
 ------------------------------------------------------------------------------------------------------------
 
 SOLVING FOR TRANSPORT 

          SEQUENTIAL TRANSPORT ITERATION LOOP NUMBER    1
          -----------------------------------------------

 ------------------------------------------------------------------------------------------------------------------------
     1 CALLS TO SPARSE MATRIX SOLVER PACKAGE IN TRANSPORT TIME STEP     415 STRESS PERIOD       2 SPECIES  1

 TOTAL OF       1OUTER ITERATIONS
  MAXIMUM CHANGE FOR EACH ITERATION:
   MAX. CHANGE        NODE  MAX. CHANGE        NODE  MAX. CHANGE        NODE  MAX. CHANGE        NODE  MAX. CHANGE        NODE
 ------------------------------------------------------------------------------------------------------------------------------------
  -0.56075    ,       1280
     TRANSPORT SOLUTION COMPLETE FOR COMPONENT SPECIES NUMBER    1
     ------------------------------------------------------------

 TRANSPORT SOLUTION COMPLETE FOR ALL SPECIES, SORTING OUTPUT FOR CONCENTRATIONS AND MASS BALANCE
 ----------------------------------------------------------------------------------------------------
     TRANSPORT OUTPUT FOR COMPONENT SPECIES NUMBER    1
     ------------------------------------------------------------
 -------------------------------------------------------------------------------------
 
 SOLVING FOR HEAD 

 Outer-Iteration  Inner-Iteration  Backtracking  Number of        Incoming       Outgoing      Cutoff     Maximum Head Change      Maximum Head Change
     Number           Count           Flag       Backtracks       Residual       Residual      Residual            Value               Location
        1                             0             0          0.542202E-01     0.542202E-01   -1.00000    
        1               11                                                                                       0.507999E-04               1280           GWF-node number
        2                             0             0          0.100015E-05     0.100015E-05   -1.00000    
        2                2                                                                                      -0.782328E-06               1522           GWF-node number
     2 CALLS TO SPARSE MATRIX SOLVER PACKAGE  IN FLOW TIME STEP     416 STRESS PERIOD       2

 TOTAL OF       2OUTER ITERATIONS
  MAXIMUM CHANGE FOR EACH ITERATION:
   MAX. CHANGE        NODE  MAX. CHANGE        NODE  MAX. CHANGE        NODE  MAX. CHANGE        NODE  MAX. CHANGE        NODE
 ------------------------------------------------------------------------------------------------------------------------------------
   0.50800E-04,       1280 -0.78233E-06,       1522

 NO OUTPUT CONTROL FOR STRESS PERIOD        2   TIME STEP      416



          TIME SUMMARY AT END OF TIME STEP       416 IN STRESS PERIOD         2
                    SECONDS     MINUTES      HOURS       DAYS        YEARS
                    -----------------------------------------------------------
   TIME STEP LENGTH  86.400      1.4400     2.40000E-02 1.00000E-03 2.73785E-06
 STRESS PERIOD TIME  35942.      599.04      9.9840     0.41600     1.13895E-03
         TOTAL TIME 1.22342E+05  2039.0      33.984      1.4160     3.87680E-03
1
 ------------------------------------------------------------------------------------------------------------
 
 SOLVING FOR TRANSPORT 

          SEQUENTIAL TRANSPORT ITERATION LOOP NUMBER    1
          -----------------------------------------------

 ------------------------------------------------------------------------------------------------------------------------
     1 CALLS TO SPARSE MATRIX SOLVER PACKAGE IN TRANSPORT TIME STEP     416 STRESS PERIOD       2 SPECIES  1

 TOTAL OF       1OUTER ITERATIONS
  MAXIMUM CHANGE FOR EACH ITERATION:
   MAX. CHANGE        NODE  MAX. CHANGE        NODE  MAX. CHANGE        NODE  MAX. CHANGE        NODE  MAX. CHANGE        NODE
 ------------------------------------------------------------------------------------------------------------------------------------
  -0.44919    ,       1200
     TRANSPORT SOLUTION COMPLETE FOR COMPONENT SPECIES NUMBER    1
     ------------------------------------------------------------

 TRANSPORT SOLUTION COMPLETE FOR ALL SPECIES, SORTING OUTPUT FOR CONCENTRATIONS AND MASS BALANCE
 ----------------------------------------------------------------------------------------------------
     TRANSPORT OUTPUT FOR COMPONENT SPECIES NUMBER    1
     ------------------------------------------------------------
 -------------------------------------------------------------------------------------
 
 SOLVING FOR HEAD 

 Outer-Iteration  Inner-Iteration  Backtracking  Number of        Incoming       Outgoing      Cutoff     Maximum Head Change      Maximum Head Change
     Number           Count           Flag       Backtracks       Residual       Residual      Residual            Value               Location
        1                             0             0          0.203463E-01     0.203463E-01   -1.00000    
        1               12                                                                                       0.281528E-04               1200           GWF-node number
        2                             0             0          0.108410E-06     0.108410E-06   -1.00000    
        2                1                                                                                      -0.385526E-06               2242           GWF-node number
     2 CALLS TO SPARSE MATRIX SOLVER PACKAGE  IN FLOW TIME STEP     417 STRESS PERIOD       2

 TOTAL OF       2OUTER ITERATIONS
  MAXIMUM CHANGE FOR EACH ITERATION:
   MAX. CHANGE        NODE  MAX. CHANGE        NODE  MAX. CHANGE        NODE  MAX. CHANGE        NODE  MAX. CHANGE        NODE
 ------------------------------------------------------------------------------------------------------------------------------------
   0.28153E-04,       1200 -0.38553E-06,       2242

 NO OUTPUT CONTROL FOR STRESS PERIOD        2   TIME STEP      417



          TIME SUMMARY AT END OF TIME STEP       417 IN STRESS PERIOD         2
                    SECONDS     MINUTES      HOURS       DAYS        YEARS
                    -----------------------------------------------------------
   TIME STEP LENGTH  86.400      1.4400     2.40000E-02 1.00000E-03 2.73785E-06
 STRESS PERIOD TIME  36029.      600.48      10.008     0.41700     1.14168E-03
         TOTAL TIME 1.22429E+05  2040.5      34.008      1.4170     3.87953E-03
1
 ------------------------------------------------------------------------------------------------------------
 
 SOLVING FOR TRANSPORT 

          SEQUENTIAL TRANSPORT ITERATION LOOP NUMBER    1
          -----------------------------------------------

 ------------------------------------------------------------------------------------------------------------------------
     1 CALLS TO SPARSE MATRIX SOLVER PACKAGE IN TRANSPORT TIME STEP     417 STRESS PERIOD       2 SPECIES  1

 TOTAL OF       1OUTER ITERATIONS
  MAXIMUM CHANGE FOR EACH ITERATION:
   MAX. CHANGE        NODE  MAX. CHANGE        NODE  MAX. CHANGE        NODE  MAX. CHANGE        NODE  MAX. CHANGE        NODE
 ------------------------------------------------------------------------------------------------------------------------------------
  -0.52311    ,       1200
     TRANSPORT SOLUTION COMPLETE FOR COMPONENT SPECIES NUMBER    1
     ------------------------------------------------------------

 TRANSPORT SOLUTION COMPLETE FOR ALL SPECIES, SORTING OUTPUT FOR CONCENTRATIONS AND MASS BALANCE
 ----------------------------------------------------------------------------------------------------
     TRANSPORT OUTPUT FOR COMPONENT SPECIES NUMBER    1
     ------------------------------------------------------------
 -------------------------------------------------------------------------------------
 
 SOLVING FOR HEAD 

 Outer-Iteration  Inner-Iteration  Backtracking  Number of        Incoming       Outgoing      Cutoff     Maximum Head Change      Maximum Head Change
     Number           Count           Flag       Backtracks       Residual       Residual      Residual            Value               Location
        1                             0             0          0.471947E-01     0.471947E-01   -1.00000    
        1               11                                                                                       0.454632E-04               1200           GWF-node number
        2                             0             0          0.969276E-06     0.969276E-06   -1.00000    
        2                1                                                                                      -0.970501E-06               3132           GWF-node number
     2 CALLS TO SPARSE MATRIX SOLVER PACKAGE  IN FLOW TIME STEP     418 STRESS PERIOD       2

 TOTAL OF       2OUTER ITERATIONS
  MAXIMUM CHANGE FOR EACH ITERATION:
   MAX. CHANGE        NODE  MAX. CHANGE        NODE  MAX. CHANGE        NODE  MAX. CHANGE        NODE  MAX. CHANGE        NODE
 ------------------------------------------------------------------------------------------------------------------------------------
   0.45463E-04,       1200 -0.97050E-06,       3132

 NO OUTPUT CONTROL FOR STRESS PERIOD        2   TIME STEP      418



          TIME SUMMARY AT END OF TIME STEP       418 IN STRESS PERIOD         2
                    SECONDS     MINUTES      HOURS       DAYS        YEARS
                    -----------------------------------------------------------
   TIME STEP LENGTH  86.400      1.4400     2.40000E-02 1.00000E-03 2.73785E-06
 STRESS PERIOD TIME  36115.      601.92      10.032     0.41800     1.14442E-03
         TOTAL TIME 1.22515E+05  2041.9      34.032      1.4180     3.88227E-03
1
 ------------------------------------------------------------------------------------------------------------
 
 SOLVING FOR TRANSPORT 

          SEQUENTIAL TRANSPORT ITERATION LOOP NUMBER    1
          -----------------------------------------------

 ------------------------------------------------------------------------------------------------------------------------
     1 CALLS TO SPARSE MATRIX SOLVER PACKAGE IN TRANSPORT TIME STEP     418 STRESS PERIOD       2 SPECIES  1

 TOTAL OF       1OUTER ITERATIONS
  MAXIMUM CHANGE FOR EACH ITERATION:
   MAX. CHANGE        NODE  MAX. CHANGE        NODE  MAX. CHANGE        NODE  MAX. CHANGE        NODE  MAX. CHANGE        NODE
 ------------------------------------------------------------------------------------------------------------------------------------
  -0.47294    ,       1200
     TRANSPORT SOLUTION COMPLETE FOR COMPONENT SPECIES NUMBER    1
     ------------------------------------------------------------

 TRANSPORT SOLUTION COMPLETE FOR ALL SPECIES, SORTING OUTPUT FOR CONCENTRATIONS AND MASS BALANCE
 ----------------------------------------------------------------------------------------------------
     TRANSPORT OUTPUT FOR COMPONENT SPECIES NUMBER    1
     ------------------------------------------------------------
 -------------------------------------------------------------------------------------
 
 SOLVING FOR HEAD 

 Outer-Iteration  Inner-Iteration  Backtracking  Number of        Incoming       Outgoing      Cutoff     Maximum Head Change      Maximum Head Change
     Number           Count           Flag       Backtracks       Residual       Residual      Residual            Value               Location
        1                             0             0          0.637406E-01     0.637406E-01   -1.00000    
        1               11                                                                                       0.471212E-04               1200           GWF-node number
        2                             0             0          0.527272E-06     0.527272E-06   -1.00000    
        2                1                                                                                       0.659922E-06               1224           GWF-node number
     2 CALLS TO SPARSE MATRIX SOLVER PACKAGE  IN FLOW TIME STEP     419 STRESS PERIOD       2

 TOTAL OF       2OUTER ITERATIONS
  MAXIMUM CHANGE FOR EACH ITERATION:
   MAX. CHANGE        NODE  MAX. CHANGE        NODE  MAX. CHANGE        NODE  MAX. CHANGE        NODE  MAX. CHANGE        NODE
 ------------------------------------------------------------------------------------------------------------------------------------
   0.47121E-04,       1200  0.65992E-06,       1224

 NO OUTPUT CONTROL FOR STRESS PERIOD        2   TIME STEP      419



          TIME SUMMARY AT END OF TIME STEP       419 IN STRESS PERIOD         2
                    SECONDS     MINUTES      HOURS       DAYS        YEARS
                    -----------------------------------------------------------
   TIME STEP LENGTH  86.400      1.4400     2.40000E-02 1.00000E-03 2.73785E-06
 STRESS PERIOD TIME  36202.      603.36      10.056     0.41900     1.14716E-03
         TOTAL TIME 1.22602E+05  2043.4      34.056      1.4190     3.88501E-03
1
 ------------------------------------------------------------------------------------------------------------
 
 SOLVING FOR TRANSPORT 

          SEQUENTIAL TRANSPORT ITERATION LOOP NUMBER    1
          -----------------------------------------------

 ------------------------------------------------------------------------------------------------------------------------
     1 CALLS TO SPARSE MATRIX SOLVER PACKAGE IN TRANSPORT TIME STEP     419 STRESS PERIOD       2 SPECIES  1

 TOTAL OF       1OUTER ITERATIONS
  MAXIMUM CHANGE FOR EACH ITERATION:
   MAX. CHANGE        NODE  MAX. CHANGE        NODE  MAX. CHANGE        NODE  MAX. CHANGE        NODE  MAX. CHANGE        NODE
 ------------------------------------------------------------------------------------------------------------------------------------
   0.38418    ,       1440
     TRANSPORT SOLUTION COMPLETE FOR COMPONENT SPECIES NUMBER    1
     ------------------------------------------------------------

 TRANSPORT SOLUTION COMPLETE FOR ALL SPECIES, SORTING OUTPUT FOR CONCENTRATIONS AND MASS BALANCE
 ----------------------------------------------------------------------------------------------------
     TRANSPORT OUTPUT FOR COMPONENT SPECIES NUMBER    1
     ------------------------------------------------------------
 -------------------------------------------------------------------------------------
 
 SOLVING FOR HEAD 

 Outer-Iteration  Inner-Iteration  Backtracking  Number of        Incoming       Outgoing      Cutoff     Maximum Head Change      Maximum Head Change
     Number           Count           Flag       Backtracks       Residual       Residual      Residual            Value               Location
        1                             0             0          0.117369E-01     0.117369E-01   -1.00000    
        1               10                                                                                      -0.284599E-04               1440           GWF-node number
        2                             0             0          0.148720E-05     0.148720E-05   -1.00000    
        2                3                                                                                       0.499900E-06               2561           GWF-node number
     2 CALLS TO SPARSE MATRIX SOLVER PACKAGE  IN FLOW TIME STEP     420 STRESS PERIOD       2

 TOTAL OF       2OUTER ITERATIONS
  MAXIMUM CHANGE FOR EACH ITERATION:
   MAX. CHANGE        NODE  MAX. CHANGE        NODE  MAX. CHANGE        NODE  MAX. CHANGE        NODE  MAX. CHANGE        NODE
 ------------------------------------------------------------------------------------------------------------------------------------
  -0.28460E-04,       1440  0.49990E-06,       2561

 NO OUTPUT CONTROL FOR STRESS PERIOD        2   TIME STEP      420



          TIME SUMMARY AT END OF TIME STEP       420 IN STRESS PERIOD         2
                    SECONDS     MINUTES      HOURS       DAYS        YEARS
                    -----------------------------------------------------------
   TIME STEP LENGTH  86.400      1.4400     2.40000E-02 1.00000E-03 2.73785E-06
 STRESS PERIOD TIME  36288.      604.80      10.080     0.42000     1.14990E-03
         TOTAL TIME 1.22688E+05  2044.8      34.080      1.4200     3.88775E-03
1
 ------------------------------------------------------------------------------------------------------------
 
 SOLVING FOR TRANSPORT 

          SEQUENTIAL TRANSPORT ITERATION LOOP NUMBER    1
          -----------------------------------------------

 ------------------------------------------------------------------------------------------------------------------------
     1 CALLS TO SPARSE MATRIX SOLVER PACKAGE IN TRANSPORT TIME STEP     420 STRESS PERIOD       2 SPECIES  1

 TOTAL OF       1OUTER ITERATIONS
  MAXIMUM CHANGE FOR EACH ITERATION:
   MAX. CHANGE        NODE  MAX. CHANGE        NODE  MAX. CHANGE        NODE  MAX. CHANGE        NODE  MAX. CHANGE        NODE
 ------------------------------------------------------------------------------------------------------------------------------------
   0.38582    ,       1360
     TRANSPORT SOLUTION COMPLETE FOR COMPONENT SPECIES NUMBER    1
     ------------------------------------------------------------

 TRANSPORT SOLUTION COMPLETE FOR ALL SPECIES, SORTING OUTPUT FOR CONCENTRATIONS AND MASS BALANCE
 ----------------------------------------------------------------------------------------------------
     TRANSPORT OUTPUT FOR COMPONENT SPECIES NUMBER    1
     ------------------------------------------------------------
 -------------------------------------------------------------------------------------
 
 SOLVING FOR HEAD 

 Outer-Iteration  Inner-Iteration  Backtracking  Number of        Incoming       Outgoing      Cutoff     Maximum Head Change      Maximum Head Change
     Number           Count           Flag       Backtracks       Residual       Residual      Residual            Value               Location
        1                             0             0          0.856607E-02     0.856607E-02   -1.00000    
        1               12                                                                                      -0.250226E-04               1440           GWF-node number
        2                             0             0          0.784798E-07     0.784798E-07   -1.00000    
        2                1                                                                                      -0.306901E-06               3121           GWF-node number
     2 CALLS TO SPARSE MATRIX SOLVER PACKAGE  IN FLOW TIME STEP     421 STRESS PERIOD       2

 TOTAL OF       2OUTER ITERATIONS
  MAXIMUM CHANGE FOR EACH ITERATION:
   MAX. CHANGE        NODE  MAX. CHANGE        NODE  MAX. CHANGE        NODE  MAX. CHANGE        NODE  MAX. CHANGE        NODE
 ------------------------------------------------------------------------------------------------------------------------------------
  -0.25023E-04,       1440 -0.30690E-06,       3121

 NO OUTPUT CONTROL FOR STRESS PERIOD        2   TIME STEP      421



          TIME SUMMARY AT END OF TIME STEP       421 IN STRESS PERIOD         2
                    SECONDS     MINUTES      HOURS       DAYS        YEARS
                    -----------------------------------------------------------
   TIME STEP LENGTH  86.400      1.4400     2.40000E-02 1.00000E-03 2.73785E-06
 STRESS PERIOD TIME  36374.      606.24      10.104     0.42100     1.15264E-03
         TOTAL TIME 1.22774E+05  2046.2      34.104      1.4210     3.89049E-03
1
 ------------------------------------------------------------------------------------------------------------
 
 SOLVING FOR TRANSPORT 

          SEQUENTIAL TRANSPORT ITERATION LOOP NUMBER    1
          -----------------------------------------------

 ------------------------------------------------------------------------------------------------------------------------
     1 CALLS TO SPARSE MATRIX SOLVER PACKAGE IN TRANSPORT TIME STEP     421 STRESS PERIOD       2 SPECIES  1

 TOTAL OF       1OUTER ITERATIONS
  MAXIMUM CHANGE FOR EACH ITERATION:
   MAX. CHANGE        NODE  MAX. CHANGE        NODE  MAX. CHANGE        NODE  MAX. CHANGE        NODE  MAX. CHANGE        NODE
 ------------------------------------------------------------------------------------------------------------------------------------
   0.45163    ,       1360
     TRANSPORT SOLUTION COMPLETE FOR COMPONENT SPECIES NUMBER    1
     ------------------------------------------------------------

 TRANSPORT SOLUTION COMPLETE FOR ALL SPECIES, SORTING OUTPUT FOR CONCENTRATIONS AND MASS BALANCE
 ----------------------------------------------------------------------------------------------------
     TRANSPORT OUTPUT FOR COMPONENT SPECIES NUMBER    1
     ------------------------------------------------------------
 -------------------------------------------------------------------------------------
 
 SOLVING FOR HEAD 

 Outer-Iteration  Inner-Iteration  Backtracking  Number of        Incoming       Outgoing      Cutoff     Maximum Head Change      Maximum Head Change
     Number           Count           Flag       Backtracks       Residual       Residual      Residual            Value               Location
        1                             0             0          0.102821E-01     0.102821E-01   -1.00000    
        1                9                                                                                      -0.267162E-04               1360           GWF-node number
        2                             0             0          0.247433E-05     0.247433E-05   -1.00000    
        2                2                                                                                       0.160351E-05               1313           GWF-node number
     2 CALLS TO SPARSE MATRIX SOLVER PACKAGE  IN FLOW TIME STEP     422 STRESS PERIOD       2

 TOTAL OF       2OUTER ITERATIONS
  MAXIMUM CHANGE FOR EACH ITERATION:
   MAX. CHANGE        NODE  MAX. CHANGE        NODE  MAX. CHANGE        NODE  MAX. CHANGE        NODE  MAX. CHANGE        NODE
 ------------------------------------------------------------------------------------------------------------------------------------
  -0.26716E-04,       1360  0.16035E-05,       1313

 NO OUTPUT CONTROL FOR STRESS PERIOD        2   TIME STEP      422



          TIME SUMMARY AT END OF TIME STEP       422 IN STRESS PERIOD         2
                    SECONDS     MINUTES      HOURS       DAYS        YEARS
                    -----------------------------------------------------------
   TIME STEP LENGTH  86.400      1.4400     2.40000E-02 1.00000E-03 2.73785E-06
 STRESS PERIOD TIME  36461.      607.68      10.128     0.42200     1.15537E-03
         TOTAL TIME 1.22861E+05  2047.7      34.128      1.4220     3.89322E-03
1
 ------------------------------------------------------------------------------------------------------------
 
 SOLVING FOR TRANSPORT 

          SEQUENTIAL TRANSPORT ITERATION LOOP NUMBER    1
          -----------------------------------------------

 ------------------------------------------------------------------------------------------------------------------------
     1 CALLS TO SPARSE MATRIX SOLVER PACKAGE IN TRANSPORT TIME STEP     422 STRESS PERIOD       2 SPECIES  1

 TOTAL OF       1OUTER ITERATIONS
  MAXIMUM CHANGE FOR EACH ITERATION:
   MAX. CHANGE        NODE  MAX. CHANGE        NODE  MAX. CHANGE        NODE  MAX. CHANGE        NODE  MAX. CHANGE        NODE
 ------------------------------------------------------------------------------------------------------------------------------------
   0.40006    ,       1280
     TRANSPORT SOLUTION COMPLETE FOR COMPONENT SPECIES NUMBER    1
     ------------------------------------------------------------

 TRANSPORT SOLUTION COMPLETE FOR ALL SPECIES, SORTING OUTPUT FOR CONCENTRATIONS AND MASS BALANCE
 ----------------------------------------------------------------------------------------------------
     TRANSPORT OUTPUT FOR COMPONENT SPECIES NUMBER    1
     ------------------------------------------------------------
 -------------------------------------------------------------------------------------
 
 SOLVING FOR HEAD 

 Outer-Iteration  Inner-Iteration  Backtracking  Number of        Incoming       Outgoing      Cutoff     Maximum Head Change      Maximum Head Change
     Number           Count           Flag       Backtracks       Residual       Residual      Residual            Value               Location
        1                             0             0          0.849743E-02     0.849743E-02   -1.00000    
        1               11                                                                                      -0.230256E-04               1360           GWF-node number
        2                             0             0          0.166699E-06     0.166699E-06   -1.00000    
        2                1                                                                                      -0.621701E-06               2481           GWF-node number
     2 CALLS TO SPARSE MATRIX SOLVER PACKAGE  IN FLOW TIME STEP     423 STRESS PERIOD       2

 TOTAL OF       2OUTER ITERATIONS
  MAXIMUM CHANGE FOR EACH ITERATION:
   MAX. CHANGE        NODE  MAX. CHANGE        NODE  MAX. CHANGE        NODE  MAX. CHANGE        NODE  MAX. CHANGE        NODE
 ------------------------------------------------------------------------------------------------------------------------------------
  -0.23026E-04,       1360 -0.62170E-06,       2481

 NO OUTPUT CONTROL FOR STRESS PERIOD        2   TIME STEP      423



          TIME SUMMARY AT END OF TIME STEP       423 IN STRESS PERIOD         2
                    SECONDS     MINUTES      HOURS       DAYS        YEARS
                    -----------------------------------------------------------
   TIME STEP LENGTH  86.400      1.4400     2.40000E-02 1.00000E-03 2.73785E-06
 STRESS PERIOD TIME  36547.      609.12      10.152     0.42300     1.15811E-03
         TOTAL TIME 1.22947E+05  2049.1      34.152      1.4230     3.89596E-03
1
 ------------------------------------------------------------------------------------------------------------
 
 SOLVING FOR TRANSPORT 

          SEQUENTIAL TRANSPORT ITERATION LOOP NUMBER    1
          -----------------------------------------------

 ------------------------------------------------------------------------------------------------------------------------
     1 CALLS TO SPARSE MATRIX SOLVER PACKAGE IN TRANSPORT TIME STEP     423 STRESS PERIOD       2 SPECIES  1

 TOTAL OF       1OUTER ITERATIONS
  MAXIMUM CHANGE FOR EACH ITERATION:
   MAX. CHANGE        NODE  MAX. CHANGE        NODE  MAX. CHANGE        NODE  MAX. CHANGE        NODE  MAX. CHANGE        NODE
 ------------------------------------------------------------------------------------------------------------------------------------
   0.40288    ,       1280
     TRANSPORT SOLUTION COMPLETE FOR COMPONENT SPECIES NUMBER    1
     ------------------------------------------------------------

 TRANSPORT SOLUTION COMPLETE FOR ALL SPECIES, SORTING OUTPUT FOR CONCENTRATIONS AND MASS BALANCE
 ----------------------------------------------------------------------------------------------------
     TRANSPORT OUTPUT FOR COMPONENT SPECIES NUMBER    1
     ------------------------------------------------------------
 -------------------------------------------------------------------------------------
 
 SOLVING FOR HEAD 

 Outer-Iteration  Inner-Iteration  Backtracking  Number of        Incoming       Outgoing      Cutoff     Maximum Head Change      Maximum Head Change
     Number           Count           Flag       Backtracks       Residual       Residual      Residual            Value               Location
        1                             0             0          0.725071E-02     0.725071E-02   -1.00000    
        1               11                                                                                       0.198800E-04                790           GWF-node number
        2                             0             0          0.826565E-07     0.826565E-07   -1.00000    
        2                1                                                                                      -0.158212E-06                963           GWF-node number
     2 CALLS TO SPARSE MATRIX SOLVER PACKAGE  IN FLOW TIME STEP     424 STRESS PERIOD       2

 TOTAL OF       2OUTER ITERATIONS
  MAXIMUM CHANGE FOR EACH ITERATION:
   MAX. CHANGE        NODE  MAX. CHANGE        NODE  MAX. CHANGE        NODE  MAX. CHANGE        NODE  MAX. CHANGE        NODE
 ------------------------------------------------------------------------------------------------------------------------------------
   0.19880E-04,        790 -0.15821E-06,        963

 NO OUTPUT CONTROL FOR STRESS PERIOD        2   TIME STEP      424



          TIME SUMMARY AT END OF TIME STEP       424 IN STRESS PERIOD         2
                    SECONDS     MINUTES      HOURS       DAYS        YEARS
                    -----------------------------------------------------------
   TIME STEP LENGTH  86.400      1.4400     2.40000E-02 1.00000E-03 2.73785E-06
 STRESS PERIOD TIME  36634.      610.56      10.176     0.42400     1.16085E-03
         TOTAL TIME 1.23034E+05  2050.6      34.176      1.4240     3.89870E-03
1
 ------------------------------------------------------------------------------------------------------------
 
 SOLVING FOR TRANSPORT 

          SEQUENTIAL TRANSPORT ITERATION LOOP NUMBER    1
          -----------------------------------------------

 ------------------------------------------------------------------------------------------------------------------------
     1 CALLS TO SPARSE MATRIX SOLVER PACKAGE IN TRANSPORT TIME STEP     424 STRESS PERIOD       2 SPECIES  1

 TOTAL OF       1OUTER ITERATIONS
  MAXIMUM CHANGE FOR EACH ITERATION:
   MAX. CHANGE        NODE  MAX. CHANGE        NODE  MAX. CHANGE        NODE  MAX. CHANGE        NODE  MAX. CHANGE        NODE
 ------------------------------------------------------------------------------------------------------------------------------------
   0.37158    ,       1280
     TRANSPORT SOLUTION COMPLETE FOR COMPONENT SPECIES NUMBER    1
     ------------------------------------------------------------

 TRANSPORT SOLUTION COMPLETE FOR ALL SPECIES, SORTING OUTPUT FOR CONCENTRATIONS AND MASS BALANCE
 ----------------------------------------------------------------------------------------------------
     TRANSPORT OUTPUT FOR COMPONENT SPECIES NUMBER    1
     ------------------------------------------------------------
 -------------------------------------------------------------------------------------
 
 SOLVING FOR HEAD 

 Outer-Iteration  Inner-Iteration  Backtracking  Number of        Incoming       Outgoing      Cutoff     Maximum Head Change      Maximum Head Change
     Number           Count           Flag       Backtracks       Residual       Residual      Residual            Value               Location
        1                             0             0          0.843403E-02     0.843403E-02   -1.00000    
        1                9                                                                                      -0.217477E-04               1280           GWF-node number
        2                             0             0          0.808662E-06     0.808662E-06   -1.00000    
        2                1                                                                                      -0.715558E-06               2106           GWF-node number
     2 CALLS TO SPARSE MATRIX SOLVER PACKAGE  IN FLOW TIME STEP     425 STRESS PERIOD       2

 TOTAL OF       2OUTER ITERATIONS
  MAXIMUM CHANGE FOR EACH ITERATION:
   MAX. CHANGE        NODE  MAX. CHANGE        NODE  MAX. CHANGE        NODE  MAX. CHANGE        NODE  MAX. CHANGE        NODE
 ------------------------------------------------------------------------------------------------------------------------------------
  -0.21748E-04,       1280 -0.71556E-06,       2106

 NO OUTPUT CONTROL FOR STRESS PERIOD        2   TIME STEP      425



          TIME SUMMARY AT END OF TIME STEP       425 IN STRESS PERIOD         2
                    SECONDS     MINUTES      HOURS       DAYS        YEARS
                    -----------------------------------------------------------
   TIME STEP LENGTH  86.400      1.4400     2.40000E-02 1.00000E-03 2.73785E-06
 STRESS PERIOD TIME  36720.      612.00      10.200     0.42500     1.16359E-03
         TOTAL TIME 1.23120E+05  2052.0      34.200      1.4250     3.90144E-03
1
 ------------------------------------------------------------------------------------------------------------
 
 SOLVING FOR TRANSPORT 

          SEQUENTIAL TRANSPORT ITERATION LOOP NUMBER    1
          -----------------------------------------------

 ------------------------------------------------------------------------------------------------------------------------
     1 CALLS TO SPARSE MATRIX SOLVER PACKAGE IN TRANSPORT TIME STEP     425 STRESS PERIOD       2 SPECIES  1

 TOTAL OF       1OUTER ITERATIONS
  MAXIMUM CHANGE FOR EACH ITERATION:
   MAX. CHANGE        NODE  MAX. CHANGE        NODE  MAX. CHANGE        NODE  MAX. CHANGE        NODE  MAX. CHANGE        NODE
 ------------------------------------------------------------------------------------------------------------------------------------
   0.31086    ,       1040
     TRANSPORT SOLUTION COMPLETE FOR COMPONENT SPECIES NUMBER    1
     ------------------------------------------------------------

 TRANSPORT SOLUTION COMPLETE FOR ALL SPECIES, SORTING OUTPUT FOR CONCENTRATIONS AND MASS BALANCE
 ----------------------------------------------------------------------------------------------------
     TRANSPORT OUTPUT FOR COMPONENT SPECIES NUMBER    1
     ------------------------------------------------------------
 -------------------------------------------------------------------------------------
 
 SOLVING FOR HEAD 

 Outer-Iteration  Inner-Iteration  Backtracking  Number of        Incoming       Outgoing      Cutoff     Maximum Head Change      Maximum Head Change
     Number           Count           Flag       Backtracks       Residual       Residual      Residual            Value               Location
        1                             0             0          0.639053E-02     0.639053E-02   -1.00000    
        1               11                                                                                      -0.170544E-04               1280           GWF-node number
        2                             0             0          0.999099E-07     0.999099E-07   -1.00000    
        2                1                                                                                       0.210243E-06               1947           GWF-node number
     2 CALLS TO SPARSE MATRIX SOLVER PACKAGE  IN FLOW TIME STEP     426 STRESS PERIOD       2

 TOTAL OF       2OUTER ITERATIONS
  MAXIMUM CHANGE FOR EACH ITERATION:
   MAX. CHANGE        NODE  MAX. CHANGE        NODE  MAX. CHANGE        NODE  MAX. CHANGE        NODE  MAX. CHANGE        NODE
 ------------------------------------------------------------------------------------------------------------------------------------
  -0.17054E-04,       1280  0.21024E-06,       1947

 NO OUTPUT CONTROL FOR STRESS PERIOD        2   TIME STEP      426



          TIME SUMMARY AT END OF TIME STEP       426 IN STRESS PERIOD         2
                    SECONDS     MINUTES      HOURS       DAYS        YEARS
                    -----------------------------------------------------------
   TIME STEP LENGTH  86.400      1.4400     2.40000E-02 1.00000E-03 2.73785E-06
 STRESS PERIOD TIME  36806.      613.44      10.224     0.42600     1.16632E-03
         TOTAL TIME 1.23206E+05  2053.4      34.224      1.4260     3.90418E-03
1
 ------------------------------------------------------------------------------------------------------------
 
 SOLVING FOR TRANSPORT 

          SEQUENTIAL TRANSPORT ITERATION LOOP NUMBER    1
          -----------------------------------------------

 ------------------------------------------------------------------------------------------------------------------------
     1 CALLS TO SPARSE MATRIX SOLVER PACKAGE IN TRANSPORT TIME STEP     426 STRESS PERIOD       2 SPECIES  1

 TOTAL OF       1OUTER ITERATIONS
  MAXIMUM CHANGE FOR EACH ITERATION:
   MAX. CHANGE        NODE  MAX. CHANGE        NODE  MAX. CHANGE        NODE  MAX. CHANGE        NODE  MAX. CHANGE        NODE
 ------------------------------------------------------------------------------------------------------------------------------------
   0.25576    ,        960
     TRANSPORT SOLUTION COMPLETE FOR COMPONENT SPECIES NUMBER    1
     ------------------------------------------------------------

 TRANSPORT SOLUTION COMPLETE FOR ALL SPECIES, SORTING OUTPUT FOR CONCENTRATIONS AND MASS BALANCE
 ----------------------------------------------------------------------------------------------------
     TRANSPORT OUTPUT FOR COMPONENT SPECIES NUMBER    1
     ------------------------------------------------------------
 -------------------------------------------------------------------------------------
 
 SOLVING FOR HEAD 

 Outer-Iteration  Inner-Iteration  Backtracking  Number of        Incoming       Outgoing      Cutoff     Maximum Head Change      Maximum Head Change
     Number           Count           Flag       Backtracks       Residual       Residual      Residual            Value               Location
        1                             0             0          0.381164E-02     0.381164E-02   -1.00000    
        1               11                                                                                       0.156173E-04               1518           GWF-node number
        2                             0             0          0.235470E-06     0.235470E-06   -1.00000    
        2                1                                                                                      -0.534585E-06               2561           GWF-node number
     2 CALLS TO SPARSE MATRIX SOLVER PACKAGE  IN FLOW TIME STEP     427 STRESS PERIOD       2

 TOTAL OF       2OUTER ITERATIONS
  MAXIMUM CHANGE FOR EACH ITERATION:
   MAX. CHANGE        NODE  MAX. CHANGE        NODE  MAX. CHANGE        NODE  MAX. CHANGE        NODE  MAX. CHANGE        NODE
 ------------------------------------------------------------------------------------------------------------------------------------
   0.15617E-04,       1518 -0.53458E-06,       2561

 NO OUTPUT CONTROL FOR STRESS PERIOD        2   TIME STEP      427



          TIME SUMMARY AT END OF TIME STEP       427 IN STRESS PERIOD         2
                    SECONDS     MINUTES      HOURS       DAYS        YEARS
                    -----------------------------------------------------------
   TIME STEP LENGTH  86.400      1.4400     2.40000E-02 1.00000E-03 2.73785E-06
 STRESS PERIOD TIME  36893.      614.88      10.248     0.42700     1.16906E-03
         TOTAL TIME 1.23293E+05  2054.9      34.248      1.4270     3.90691E-03
1
 ------------------------------------------------------------------------------------------------------------
 
 SOLVING FOR TRANSPORT 

          SEQUENTIAL TRANSPORT ITERATION LOOP NUMBER    1
          -----------------------------------------------

 ------------------------------------------------------------------------------------------------------------------------
     1 CALLS TO SPARSE MATRIX SOLVER PACKAGE IN TRANSPORT TIME STEP     427 STRESS PERIOD       2 SPECIES  1

 TOTAL OF       1OUTER ITERATIONS
  MAXIMUM CHANGE FOR EACH ITERATION:
   MAX. CHANGE        NODE  MAX. CHANGE        NODE  MAX. CHANGE        NODE  MAX. CHANGE        NODE  MAX. CHANGE        NODE
 ------------------------------------------------------------------------------------------------------------------------------------
   0.19753    ,        880
     TRANSPORT SOLUTION COMPLETE FOR COMPONENT SPECIES NUMBER    1
     ------------------------------------------------------------

 TRANSPORT SOLUTION COMPLETE FOR ALL SPECIES, SORTING OUTPUT FOR CONCENTRATIONS AND MASS BALANCE
 ----------------------------------------------------------------------------------------------------
     TRANSPORT OUTPUT FOR COMPONENT SPECIES NUMBER    1
     ------------------------------------------------------------
 -------------------------------------------------------------------------------------
 
 SOLVING FOR HEAD 

 Outer-Iteration  Inner-Iteration  Backtracking  Number of        Incoming       Outgoing      Cutoff     Maximum Head Change      Maximum Head Change
     Number           Count           Flag       Backtracks       Residual       Residual      Residual            Value               Location
        1                             0             0          0.304586E-02     0.304586E-02   -1.00000    
        1               12                                                                                       0.172201E-04               1517           GWF-node number
        2                             0             0          0.150266E-07     0.150266E-07   -1.00000    
        2                1                                                                                      -0.243490E-06               2801           GWF-node number
     2 CALLS TO SPARSE MATRIX SOLVER PACKAGE  IN FLOW TIME STEP     428 STRESS PERIOD       2

 TOTAL OF       2OUTER ITERATIONS
  MAXIMUM CHANGE FOR EACH ITERATION:
   MAX. CHANGE        NODE  MAX. CHANGE        NODE  MAX. CHANGE        NODE  MAX. CHANGE        NODE  MAX. CHANGE        NODE
 ------------------------------------------------------------------------------------------------------------------------------------
   0.17220E-04,       1517 -0.24349E-06,       2801

 NO OUTPUT CONTROL FOR STRESS PERIOD        2   TIME STEP      428



          TIME SUMMARY AT END OF TIME STEP       428 IN STRESS PERIOD         2
                    SECONDS     MINUTES      HOURS       DAYS        YEARS
                    -----------------------------------------------------------
   TIME STEP LENGTH  86.400      1.4400     2.40000E-02 1.00000E-03 2.73785E-06
 STRESS PERIOD TIME  36979.      616.32      10.272     0.42800     1.17180E-03
         TOTAL TIME 1.23379E+05  2056.3      34.272      1.4280     3.90965E-03
1
 ------------------------------------------------------------------------------------------------------------
 
 SOLVING FOR TRANSPORT 

          SEQUENTIAL TRANSPORT ITERATION LOOP NUMBER    1
          -----------------------------------------------

 ------------------------------------------------------------------------------------------------------------------------
     1 CALLS TO SPARSE MATRIX SOLVER PACKAGE IN TRANSPORT TIME STEP     428 STRESS PERIOD       2 SPECIES  1

 TOTAL OF       1OUTER ITERATIONS
  MAXIMUM CHANGE FOR EACH ITERATION:
   MAX. CHANGE        NODE  MAX. CHANGE        NODE  MAX. CHANGE        NODE  MAX. CHANGE        NODE  MAX. CHANGE        NODE
 ------------------------------------------------------------------------------------------------------------------------------------
  -0.14824    ,       1520
     TRANSPORT SOLUTION COMPLETE FOR COMPONENT SPECIES NUMBER    1
     ------------------------------------------------------------

 TRANSPORT SOLUTION COMPLETE FOR ALL SPECIES, SORTING OUTPUT FOR CONCENTRATIONS AND MASS BALANCE
 ----------------------------------------------------------------------------------------------------
     TRANSPORT OUTPUT FOR COMPONENT SPECIES NUMBER    1
     ------------------------------------------------------------
 -------------------------------------------------------------------------------------
 
 SOLVING FOR HEAD 

 Outer-Iteration  Inner-Iteration  Backtracking  Number of        Incoming       Outgoing      Cutoff     Maximum Head Change      Maximum Head Change
     Number           Count           Flag       Backtracks       Residual       Residual      Residual            Value               Location
        1                             0             0          0.348208E-02     0.348208E-02   -1.00000    
        1               10                                                                                       0.181208E-04               1438           GWF-node number
        2                             0             0          0.375837E-06     0.375837E-06   -1.00000    
        2                1                                                                                      -0.222841E-06               1813           GWF-node number
     2 CALLS TO SPARSE MATRIX SOLVER PACKAGE  IN FLOW TIME STEP     429 STRESS PERIOD       2

 TOTAL OF       2OUTER ITERATIONS
  MAXIMUM CHANGE FOR EACH ITERATION:
   MAX. CHANGE        NODE  MAX. CHANGE        NODE  MAX. CHANGE        NODE  MAX. CHANGE        NODE  MAX. CHANGE        NODE
 ------------------------------------------------------------------------------------------------------------------------------------
   0.18121E-04,       1438 -0.22284E-06,       1813

 NO OUTPUT CONTROL FOR STRESS PERIOD        2   TIME STEP      429



          TIME SUMMARY AT END OF TIME STEP       429 IN STRESS PERIOD         2
                    SECONDS     MINUTES      HOURS       DAYS        YEARS
                    -----------------------------------------------------------
   TIME STEP LENGTH  86.400      1.4400     2.40000E-02 1.00000E-03 2.73785E-06
 STRESS PERIOD TIME  37066.      617.76      10.296     0.42900     1.17454E-03
         TOTAL TIME 1.23466E+05  2057.8      34.296      1.4290     3.91239E-03
1
 ------------------------------------------------------------------------------------------------------------
 
 SOLVING FOR TRANSPORT 

          SEQUENTIAL TRANSPORT ITERATION LOOP NUMBER    1
          -----------------------------------------------

 ------------------------------------------------------------------------------------------------------------------------
     1 CALLS TO SPARSE MATRIX SOLVER PACKAGE IN TRANSPORT TIME STEP     429 STRESS PERIOD       2 SPECIES  1

 TOTAL OF       1OUTER ITERATIONS
  MAXIMUM CHANGE FOR EACH ITERATION:
   MAX. CHANGE        NODE  MAX. CHANGE        NODE  MAX. CHANGE        NODE  MAX. CHANGE        NODE  MAX. CHANGE        NODE
 ------------------------------------------------------------------------------------------------------------------------------------
  -0.18186    ,       1520
     TRANSPORT SOLUTION COMPLETE FOR COMPONENT SPECIES NUMBER    1
     ------------------------------------------------------------

 TRANSPORT SOLUTION COMPLETE FOR ALL SPECIES, SORTING OUTPUT FOR CONCENTRATIONS AND MASS BALANCE
 ----------------------------------------------------------------------------------------------------
     TRANSPORT OUTPUT FOR COMPONENT SPECIES NUMBER    1
     ------------------------------------------------------------
 -------------------------------------------------------------------------------------
 
 SOLVING FOR HEAD 

 Outer-Iteration  Inner-Iteration  Backtracking  Number of        Incoming       Outgoing      Cutoff     Maximum Head Change      Maximum Head Change
     Number           Count           Flag       Backtracks       Residual       Residual      Residual            Value               Location
        1                             0             0          0.446830E-02     0.446830E-02   -1.00000    
        1               10                                                                                       0.195345E-04               1438           GWF-node number
        2                             0             0          0.383639E-06     0.383639E-06   -1.00000    
        2                1                                                                                      -0.633837E-06               2096           GWF-node number
     2 CALLS TO SPARSE MATRIX SOLVER PACKAGE  IN FLOW TIME STEP     430 STRESS PERIOD       2

 TOTAL OF       2OUTER ITERATIONS
  MAXIMUM CHANGE FOR EACH ITERATION:
   MAX. CHANGE        NODE  MAX. CHANGE        NODE  MAX. CHANGE        NODE  MAX. CHANGE        NODE  MAX. CHANGE        NODE
 ------------------------------------------------------------------------------------------------------------------------------------
   0.19535E-04,       1438 -0.63384E-06,       2096

 NO OUTPUT CONTROL FOR STRESS PERIOD        2   TIME STEP      430



          TIME SUMMARY AT END OF TIME STEP       430 IN STRESS PERIOD         2
                    SECONDS     MINUTES      HOURS       DAYS        YEARS
                    -----------------------------------------------------------
   TIME STEP LENGTH  86.400      1.4400     2.40000E-02 1.00000E-03 2.73785E-06
 STRESS PERIOD TIME  37152.      619.20      10.320     0.43000     1.17728E-03
         TOTAL TIME 1.23552E+05  2059.2      34.320      1.4300     3.91513E-03
1
 ------------------------------------------------------------------------------------------------------------
 
 SOLVING FOR TRANSPORT 

          SEQUENTIAL TRANSPORT ITERATION LOOP NUMBER    1
          -----------------------------------------------

 ------------------------------------------------------------------------------------------------------------------------
     1 CALLS TO SPARSE MATRIX SOLVER PACKAGE IN TRANSPORT TIME STEP     430 STRESS PERIOD       2 SPECIES  1

 TOTAL OF       1OUTER ITERATIONS
  MAXIMUM CHANGE FOR EACH ITERATION:
   MAX. CHANGE        NODE  MAX. CHANGE        NODE  MAX. CHANGE        NODE  MAX. CHANGE        NODE  MAX. CHANGE        NODE
 ------------------------------------------------------------------------------------------------------------------------------------
  -0.22009    ,       1520
     TRANSPORT SOLUTION COMPLETE FOR COMPONENT SPECIES NUMBER    1
     ------------------------------------------------------------

 TRANSPORT SOLUTION COMPLETE FOR ALL SPECIES, SORTING OUTPUT FOR CONCENTRATIONS AND MASS BALANCE
 ----------------------------------------------------------------------------------------------------
     TRANSPORT OUTPUT FOR COMPONENT SPECIES NUMBER    1
     ------------------------------------------------------------
 -------------------------------------------------------------------------------------
 
 SOLVING FOR HEAD 

 Outer-Iteration  Inner-Iteration  Backtracking  Number of        Incoming       Outgoing      Cutoff     Maximum Head Change      Maximum Head Change
     Number           Count           Flag       Backtracks       Residual       Residual      Residual            Value               Location
        1                             0             0          0.504850E-02     0.504850E-02   -1.00000    
        1               10                                                                                       0.201590E-04               1438           GWF-node number
        2                             0             0          0.115003E-05     0.115003E-05   -1.00000    
        2                1                                                                                      -0.715753E-06               1627           GWF-node number
     2 CALLS TO SPARSE MATRIX SOLVER PACKAGE  IN FLOW TIME STEP     431 STRESS PERIOD       2

 TOTAL OF       2OUTER ITERATIONS
  MAXIMUM CHANGE FOR EACH ITERATION:
   MAX. CHANGE        NODE  MAX. CHANGE        NODE  MAX. CHANGE        NODE  MAX. CHANGE        NODE  MAX. CHANGE        NODE
 ------------------------------------------------------------------------------------------------------------------------------------
   0.20159E-04,       1438 -0.71575E-06,       1627

 NO OUTPUT CONTROL FOR STRESS PERIOD        2   TIME STEP      431



          TIME SUMMARY AT END OF TIME STEP       431 IN STRESS PERIOD         2
                    SECONDS     MINUTES      HOURS       DAYS        YEARS
                    -----------------------------------------------------------
   TIME STEP LENGTH  86.400      1.4400     2.40000E-02 1.00000E-03 2.73785E-06
 STRESS PERIOD TIME  37238.      620.64      10.344     0.43100     1.18001E-03
         TOTAL TIME 1.23638E+05  2060.6      34.344      1.4310     3.91786E-03
1
 ------------------------------------------------------------------------------------------------------------
 
 SOLVING FOR TRANSPORT 

          SEQUENTIAL TRANSPORT ITERATION LOOP NUMBER    1
          -----------------------------------------------

 ------------------------------------------------------------------------------------------------------------------------
     1 CALLS TO SPARSE MATRIX SOLVER PACKAGE IN TRANSPORT TIME STEP     431 STRESS PERIOD       2 SPECIES  1

 TOTAL OF       1OUTER ITERATIONS
  MAXIMUM CHANGE FOR EACH ITERATION:
   MAX. CHANGE        NODE  MAX. CHANGE        NODE  MAX. CHANGE        NODE  MAX. CHANGE        NODE  MAX. CHANGE        NODE
 ------------------------------------------------------------------------------------------------------------------------------------
  -0.26218    ,       1440
     TRANSPORT SOLUTION COMPLETE FOR COMPONENT SPECIES NUMBER    1
     ------------------------------------------------------------

 TRANSPORT SOLUTION COMPLETE FOR ALL SPECIES, SORTING OUTPUT FOR CONCENTRATIONS AND MASS BALANCE
 ----------------------------------------------------------------------------------------------------
     TRANSPORT OUTPUT FOR COMPONENT SPECIES NUMBER    1
     ------------------------------------------------------------
 -------------------------------------------------------------------------------------
 
 SOLVING FOR HEAD 

 Outer-Iteration  Inner-Iteration  Backtracking  Number of        Incoming       Outgoing      Cutoff     Maximum Head Change      Maximum Head Change
     Number           Count           Flag       Backtracks       Residual       Residual      Residual            Value               Location
        1                             0             0          0.625257E-02     0.625257E-02   -1.00000    
        1                8                                                                                       0.214486E-04               1359           GWF-node number
        2                             0             0          0.457730E-05     0.457730E-05   -1.00000    
        2                3                                                                                      -0.493244E-06               1509           GWF-node number
     2 CALLS TO SPARSE MATRIX SOLVER PACKAGE  IN FLOW TIME STEP     432 STRESS PERIOD       2

 TOTAL OF       2OUTER ITERATIONS
  MAXIMUM CHANGE FOR EACH ITERATION:
   MAX. CHANGE        NODE  MAX. CHANGE        NODE  MAX. CHANGE        NODE  MAX. CHANGE        NODE  MAX. CHANGE        NODE
 ------------------------------------------------------------------------------------------------------------------------------------
   0.21449E-04,       1359 -0.49324E-06,       1509

 NO OUTPUT CONTROL FOR STRESS PERIOD        2   TIME STEP      432



          TIME SUMMARY AT END OF TIME STEP       432 IN STRESS PERIOD         2
                    SECONDS     MINUTES      HOURS       DAYS        YEARS
                    -----------------------------------------------------------
   TIME STEP LENGTH  86.400      1.4400     2.40000E-02 1.00000E-03 2.73785E-06
 STRESS PERIOD TIME  37325.      622.08      10.368     0.43200     1.18275E-03
         TOTAL TIME 1.23725E+05  2062.1      34.368      1.4320     3.92060E-03
1
 ------------------------------------------------------------------------------------------------------------
 
 SOLVING FOR TRANSPORT 

          SEQUENTIAL TRANSPORT ITERATION LOOP NUMBER    1
          -----------------------------------------------

 ------------------------------------------------------------------------------------------------------------------------
     1 CALLS TO SPARSE MATRIX SOLVER PACKAGE IN TRANSPORT TIME STEP     432 STRESS PERIOD       2 SPECIES  1

 TOTAL OF       1OUTER ITERATIONS
  MAXIMUM CHANGE FOR EACH ITERATION:
   MAX. CHANGE        NODE  MAX. CHANGE        NODE  MAX. CHANGE        NODE  MAX. CHANGE        NODE  MAX. CHANGE        NODE
 ------------------------------------------------------------------------------------------------------------------------------------
  -0.30343    ,       1440
     TRANSPORT SOLUTION COMPLETE FOR COMPONENT SPECIES NUMBER    1
     ------------------------------------------------------------

 TRANSPORT SOLUTION COMPLETE FOR ALL SPECIES, SORTING OUTPUT FOR CONCENTRATIONS AND MASS BALANCE
 ----------------------------------------------------------------------------------------------------
     TRANSPORT OUTPUT FOR COMPONENT SPECIES NUMBER    1
     ------------------------------------------------------------
 -------------------------------------------------------------------------------------
 
 SOLVING FOR HEAD 

 Outer-Iteration  Inner-Iteration  Backtracking  Number of        Incoming       Outgoing      Cutoff     Maximum Head Change      Maximum Head Change
     Number           Count           Flag       Backtracks       Residual       Residual      Residual            Value               Location
        1                             0             0          0.782305E-02     0.782305E-02   -1.00000    
        1                7                                                                                       0.278931E-04               1359           GWF-node number
        2                             0             0          0.285174E-04     0.285174E-04   -1.00000    
        2                4                                                                                      -0.210478E-05               1222           GWF-node number
     2 CALLS TO SPARSE MATRIX SOLVER PACKAGE  IN FLOW TIME STEP     433 STRESS PERIOD       2

 TOTAL OF       2OUTER ITERATIONS
  MAXIMUM CHANGE FOR EACH ITERATION:
   MAX. CHANGE        NODE  MAX. CHANGE        NODE  MAX. CHANGE        NODE  MAX. CHANGE        NODE  MAX. CHANGE        NODE
 ------------------------------------------------------------------------------------------------------------------------------------
   0.27893E-04,       1359 -0.21048E-05,       1222

 NO OUTPUT CONTROL FOR STRESS PERIOD        2   TIME STEP      433



          TIME SUMMARY AT END OF TIME STEP       433 IN STRESS PERIOD         2
                    SECONDS     MINUTES      HOURS       DAYS        YEARS
                    -----------------------------------------------------------
   TIME STEP LENGTH  86.400      1.4400     2.40000E-02 1.00000E-03 2.73785E-06
 STRESS PERIOD TIME  37411.      623.52      10.392     0.43300     1.18549E-03
         TOTAL TIME 1.23811E+05  2063.5      34.392      1.4330     3.92334E-03
1
 ------------------------------------------------------------------------------------------------------------
 
 SOLVING FOR TRANSPORT 

          SEQUENTIAL TRANSPORT ITERATION LOOP NUMBER    1
          -----------------------------------------------

 ------------------------------------------------------------------------------------------------------------------------
     1 CALLS TO SPARSE MATRIX SOLVER PACKAGE IN TRANSPORT TIME STEP     433 STRESS PERIOD       2 SPECIES  1

 TOTAL OF       1OUTER ITERATIONS
  MAXIMUM CHANGE FOR EACH ITERATION:
   MAX. CHANGE        NODE  MAX. CHANGE        NODE  MAX. CHANGE        NODE  MAX. CHANGE        NODE  MAX. CHANGE        NODE
 ------------------------------------------------------------------------------------------------------------------------------------
  -0.30619    ,       1360
     TRANSPORT SOLUTION COMPLETE FOR COMPONENT SPECIES NUMBER    1
     ------------------------------------------------------------

 TRANSPORT SOLUTION COMPLETE FOR ALL SPECIES, SORTING OUTPUT FOR CONCENTRATIONS AND MASS BALANCE
 ----------------------------------------------------------------------------------------------------
     TRANSPORT OUTPUT FOR COMPONENT SPECIES NUMBER    1
     ------------------------------------------------------------
 -------------------------------------------------------------------------------------
 
 SOLVING FOR HEAD 

 Outer-Iteration  Inner-Iteration  Backtracking  Number of        Incoming       Outgoing      Cutoff     Maximum Head Change      Maximum Head Change
     Number           Count           Flag       Backtracks       Residual       Residual      Residual            Value               Location
        1                             0             0          0.758975E-02     0.758975E-02   -1.00000    
        1                9                                                                                       0.259668E-04               1359           GWF-node number
        2                             0             0          0.231378E-05     0.231378E-05   -1.00000    
        2                2                                                                                      -0.119799E-05               2186           GWF-node number
     2 CALLS TO SPARSE MATRIX SOLVER PACKAGE  IN FLOW TIME STEP     434 STRESS PERIOD       2

 TOTAL OF       2OUTER ITERATIONS
  MAXIMUM CHANGE FOR EACH ITERATION:
   MAX. CHANGE        NODE  MAX. CHANGE        NODE  MAX. CHANGE        NODE  MAX. CHANGE        NODE  MAX. CHANGE        NODE
 ------------------------------------------------------------------------------------------------------------------------------------
   0.25967E-04,       1359 -0.11980E-05,       2186

 NO OUTPUT CONTROL FOR STRESS PERIOD        2   TIME STEP      434



          TIME SUMMARY AT END OF TIME STEP       434 IN STRESS PERIOD         2
                    SECONDS     MINUTES      HOURS       DAYS        YEARS
                    -----------------------------------------------------------
   TIME STEP LENGTH  86.400      1.4400     2.40000E-02 1.00000E-03 2.73785E-06
 STRESS PERIOD TIME  37498.      624.96      10.416     0.43400     1.18823E-03
         TOTAL TIME 1.23898E+05  2065.0      34.416      1.4340     3.92608E-03
1
 ------------------------------------------------------------------------------------------------------------
 
 SOLVING FOR TRANSPORT 

          SEQUENTIAL TRANSPORT ITERATION LOOP NUMBER    1
          -----------------------------------------------

 ------------------------------------------------------------------------------------------------------------------------
     1 CALLS TO SPARSE MATRIX SOLVER PACKAGE IN TRANSPORT TIME STEP     434 STRESS PERIOD       2 SPECIES  1

 TOTAL OF       1OUTER ITERATIONS
  MAXIMUM CHANGE FOR EACH ITERATION:
   MAX. CHANGE        NODE  MAX. CHANGE        NODE  MAX. CHANGE        NODE  MAX. CHANGE        NODE  MAX. CHANGE        NODE
 ------------------------------------------------------------------------------------------------------------------------------------
  -0.39781    ,       1360
     TRANSPORT SOLUTION COMPLETE FOR COMPONENT SPECIES NUMBER    1
     ------------------------------------------------------------

 TRANSPORT SOLUTION COMPLETE FOR ALL SPECIES, SORTING OUTPUT FOR CONCENTRATIONS AND MASS BALANCE
 ----------------------------------------------------------------------------------------------------
     TRANSPORT OUTPUT FOR COMPONENT SPECIES NUMBER    1
     ------------------------------------------------------------
 -------------------------------------------------------------------------------------
 
 SOLVING FOR HEAD 

 Outer-Iteration  Inner-Iteration  Backtracking  Number of        Incoming       Outgoing      Cutoff     Maximum Head Change      Maximum Head Change
     Number           Count           Flag       Backtracks       Residual       Residual      Residual            Value               Location
        1                             0             0          0.166055E-01     0.166055E-01   -1.00000    
        1                8                                                                                       0.331546E-04               1360           GWF-node number
        2                             0             0          0.907965E-05     0.907965E-05   -1.00000    
        2                1                                                                                      -0.608195E-06                573           GWF-node number
     2 CALLS TO SPARSE MATRIX SOLVER PACKAGE  IN FLOW TIME STEP     435 STRESS PERIOD       2

 TOTAL OF       2OUTER ITERATIONS
  MAXIMUM CHANGE FOR EACH ITERATION:
   MAX. CHANGE        NODE  MAX. CHANGE        NODE  MAX. CHANGE        NODE  MAX. CHANGE        NODE  MAX. CHANGE        NODE
 ------------------------------------------------------------------------------------------------------------------------------------
   0.33155E-04,       1360 -0.60820E-06,        573

 NO OUTPUT CONTROL FOR STRESS PERIOD        2   TIME STEP      435



          TIME SUMMARY AT END OF TIME STEP       435 IN STRESS PERIOD         2
                    SECONDS     MINUTES      HOURS       DAYS        YEARS
                    -----------------------------------------------------------
   TIME STEP LENGTH  86.400      1.4400     2.40000E-02 1.00000E-03 2.73785E-06
 STRESS PERIOD TIME  37584.      626.40      10.440     0.43500     1.19097E-03
         TOTAL TIME 1.23984E+05  2066.4      34.440      1.4350     3.92882E-03
1
 ------------------------------------------------------------------------------------------------------------
 
 SOLVING FOR TRANSPORT 

          SEQUENTIAL TRANSPORT ITERATION LOOP NUMBER    1
          -----------------------------------------------

 ------------------------------------------------------------------------------------------------------------------------
     1 CALLS TO SPARSE MATRIX SOLVER PACKAGE IN TRANSPORT TIME STEP     435 STRESS PERIOD       2 SPECIES  1

 TOTAL OF       1OUTER ITERATIONS
  MAXIMUM CHANGE FOR EACH ITERATION:
   MAX. CHANGE        NODE  MAX. CHANGE        NODE  MAX. CHANGE        NODE  MAX. CHANGE        NODE  MAX. CHANGE        NODE
 ------------------------------------------------------------------------------------------------------------------------------------
  -0.34784    ,       1360
     TRANSPORT SOLUTION COMPLETE FOR COMPONENT SPECIES NUMBER    1
     ------------------------------------------------------------

 TRANSPORT SOLUTION COMPLETE FOR ALL SPECIES, SORTING OUTPUT FOR CONCENTRATIONS AND MASS BALANCE
 ----------------------------------------------------------------------------------------------------
     TRANSPORT OUTPUT FOR COMPONENT SPECIES NUMBER    1
     ------------------------------------------------------------
 -------------------------------------------------------------------------------------
 
 SOLVING FOR HEAD 

 Outer-Iteration  Inner-Iteration  Backtracking  Number of        Incoming       Outgoing      Cutoff     Maximum Head Change      Maximum Head Change
     Number           Count           Flag       Backtracks       Residual       Residual      Residual            Value               Location
        1                             0             0          0.132788E-01     0.132788E-01   -1.00000    
        1               12                                                                                       0.276419E-04               1279           GWF-node number
        2                             0             0          0.479535E-06     0.479535E-06   -1.00000    
        2                1                                                                                      -0.515053E-06               3041           GWF-node number
     2 CALLS TO SPARSE MATRIX SOLVER PACKAGE  IN FLOW TIME STEP     436 STRESS PERIOD       2

 TOTAL OF       2OUTER ITERATIONS
  MAXIMUM CHANGE FOR EACH ITERATION:
   MAX. CHANGE        NODE  MAX. CHANGE        NODE  MAX. CHANGE        NODE  MAX. CHANGE        NODE  MAX. CHANGE        NODE
 ------------------------------------------------------------------------------------------------------------------------------------
   0.27642E-04,       1279 -0.51505E-06,       3041

 NO OUTPUT CONTROL FOR STRESS PERIOD        2   TIME STEP      436



          TIME SUMMARY AT END OF TIME STEP       436 IN STRESS PERIOD         2
                    SECONDS     MINUTES      HOURS       DAYS        YEARS
                    -----------------------------------------------------------
   TIME STEP LENGTH  86.400      1.4400     2.40000E-02 1.00000E-03 2.73785E-06
 STRESS PERIOD TIME  37670.      627.84      10.464     0.43600     1.19370E-03
         TOTAL TIME 1.24070E+05  2067.8      34.464      1.4360     3.93155E-03
1
 ------------------------------------------------------------------------------------------------------------
 
 SOLVING FOR TRANSPORT 

          SEQUENTIAL TRANSPORT ITERATION LOOP NUMBER    1
          -----------------------------------------------

 ------------------------------------------------------------------------------------------------------------------------
     1 CALLS TO SPARSE MATRIX SOLVER PACKAGE IN TRANSPORT TIME STEP     436 STRESS PERIOD       2 SPECIES  1

 TOTAL OF       1OUTER ITERATIONS
  MAXIMUM CHANGE FOR EACH ITERATION:
   MAX. CHANGE        NODE  MAX. CHANGE        NODE  MAX. CHANGE        NODE  MAX. CHANGE        NODE  MAX. CHANGE        NODE
 ------------------------------------------------------------------------------------------------------------------------------------
  -0.31363    ,       1280
     TRANSPORT SOLUTION COMPLETE FOR COMPONENT SPECIES NUMBER    1
     ------------------------------------------------------------

 TRANSPORT SOLUTION COMPLETE FOR ALL SPECIES, SORTING OUTPUT FOR CONCENTRATIONS AND MASS BALANCE
 ----------------------------------------------------------------------------------------------------
     TRANSPORT OUTPUT FOR COMPONENT SPECIES NUMBER    1
     ------------------------------------------------------------
 -------------------------------------------------------------------------------------
 
 SOLVING FOR HEAD 

 Outer-Iteration  Inner-Iteration  Backtracking  Number of        Incoming       Outgoing      Cutoff     Maximum Head Change      Maximum Head Change
     Number           Count           Flag       Backtracks       Residual       Residual      Residual            Value               Location
        1                             0             0          0.846254E-02     0.846254E-02   -1.00000    
        1                9                                                                                       0.211014E-04               1279           GWF-node number
        2                             0             0          0.340599E-05     0.340599E-05   -1.00000    
        2                1                                                                                       0.782246E-06               1971           GWF-node number
     2 CALLS TO SPARSE MATRIX SOLVER PACKAGE  IN FLOW TIME STEP     437 STRESS PERIOD       2

 TOTAL OF       2OUTER ITERATIONS
  MAXIMUM CHANGE FOR EACH ITERATION:
   MAX. CHANGE        NODE  MAX. CHANGE        NODE  MAX. CHANGE        NODE  MAX. CHANGE        NODE  MAX. CHANGE        NODE
 ------------------------------------------------------------------------------------------------------------------------------------
   0.21101E-04,       1279  0.78225E-06,       1971

 NO OUTPUT CONTROL FOR STRESS PERIOD        2   TIME STEP      437



          TIME SUMMARY AT END OF TIME STEP       437 IN STRESS PERIOD         2
                    SECONDS     MINUTES      HOURS       DAYS        YEARS
                    -----------------------------------------------------------
   TIME STEP LENGTH  86.400      1.4400     2.40000E-02 1.00000E-03 2.73785E-06
 STRESS PERIOD TIME  37757.      629.28      10.488     0.43700     1.19644E-03
         TOTAL TIME 1.24157E+05  2069.3      34.488      1.4370     3.93429E-03
1
 ------------------------------------------------------------------------------------------------------------
 
 SOLVING FOR TRANSPORT 

          SEQUENTIAL TRANSPORT ITERATION LOOP NUMBER    1
          -----------------------------------------------

 ------------------------------------------------------------------------------------------------------------------------
     1 CALLS TO SPARSE MATRIX SOLVER PACKAGE IN TRANSPORT TIME STEP     437 STRESS PERIOD       2 SPECIES  1

 TOTAL OF       1OUTER ITERATIONS
  MAXIMUM CHANGE FOR EACH ITERATION:
   MAX. CHANGE        NODE  MAX. CHANGE        NODE  MAX. CHANGE        NODE  MAX. CHANGE        NODE  MAX. CHANGE        NODE
 ------------------------------------------------------------------------------------------------------------------------------------
  -0.40823    ,       1280
     TRANSPORT SOLUTION COMPLETE FOR COMPONENT SPECIES NUMBER    1
     ------------------------------------------------------------

 TRANSPORT SOLUTION COMPLETE FOR ALL SPECIES, SORTING OUTPUT FOR CONCENTRATIONS AND MASS BALANCE
 ----------------------------------------------------------------------------------------------------
     TRANSPORT OUTPUT FOR COMPONENT SPECIES NUMBER    1
     ------------------------------------------------------------
 -------------------------------------------------------------------------------------
 
 SOLVING FOR HEAD 

 Outer-Iteration  Inner-Iteration  Backtracking  Number of        Incoming       Outgoing      Cutoff     Maximum Head Change      Maximum Head Change
     Number           Count           Flag       Backtracks       Residual       Residual      Residual            Value               Location
        1                             0             0          0.220585E-01     0.220585E-01   -1.00000    
        1                7                                                                                       0.344574E-04               1280           GWF-node number
        2                             0             0          0.932986E-05     0.932986E-05   -1.00000    
        2                2                                                                                       0.104031E-05               2852           GWF-node number
     2 CALLS TO SPARSE MATRIX SOLVER PACKAGE  IN FLOW TIME STEP     438 STRESS PERIOD       2

 TOTAL OF       2OUTER ITERATIONS
  MAXIMUM CHANGE FOR EACH ITERATION:
   MAX. CHANGE        NODE  MAX. CHANGE        NODE  MAX. CHANGE        NODE  MAX. CHANGE        NODE  MAX. CHANGE        NODE
 ------------------------------------------------------------------------------------------------------------------------------------
   0.34457E-04,       1280  0.10403E-05,       2852

 NO OUTPUT CONTROL FOR STRESS PERIOD        2   TIME STEP      438



          TIME SUMMARY AT END OF TIME STEP       438 IN STRESS PERIOD         2
                    SECONDS     MINUTES      HOURS       DAYS        YEARS
                    -----------------------------------------------------------
   TIME STEP LENGTH  86.400      1.4400     2.40000E-02 1.00000E-03 2.73785E-06
 STRESS PERIOD TIME  37843.      630.72      10.512     0.43800     1.19918E-03
         TOTAL TIME 1.24243E+05  2070.7      34.512      1.4380     3.93703E-03
1
 ------------------------------------------------------------------------------------------------------------
 
 SOLVING FOR TRANSPORT 

          SEQUENTIAL TRANSPORT ITERATION LOOP NUMBER    1
          -----------------------------------------------

 ------------------------------------------------------------------------------------------------------------------------
     1 CALLS TO SPARSE MATRIX SOLVER PACKAGE IN TRANSPORT TIME STEP     438 STRESS PERIOD       2 SPECIES  1

 TOTAL OF       1OUTER ITERATIONS
  MAXIMUM CHANGE FOR EACH ITERATION:
   MAX. CHANGE        NODE  MAX. CHANGE        NODE  MAX. CHANGE        NODE  MAX. CHANGE        NODE  MAX. CHANGE        NODE
 ------------------------------------------------------------------------------------------------------------------------------------
  -0.58579    ,       1280
     TRANSPORT SOLUTION COMPLETE FOR COMPONENT SPECIES NUMBER    1
     ------------------------------------------------------------

 TRANSPORT SOLUTION COMPLETE FOR ALL SPECIES, SORTING OUTPUT FOR CONCENTRATIONS AND MASS BALANCE
 ----------------------------------------------------------------------------------------------------
     TRANSPORT OUTPUT FOR COMPONENT SPECIES NUMBER    1
     ------------------------------------------------------------
 -------------------------------------------------------------------------------------
 
 SOLVING FOR HEAD 

 Outer-Iteration  Inner-Iteration  Backtracking  Number of        Incoming       Outgoing      Cutoff     Maximum Head Change      Maximum Head Change
     Number           Count           Flag       Backtracks       Residual       Residual      Residual            Value               Location
        1                             0             0          0.610414E-01     0.610414E-01   -1.00000    
        1               10                                                                                       0.535031E-04               1280           GWF-node number
        2                             0             0          0.503745E-05     0.503745E-05   -1.00000    
        2                3                                                                                      -0.212928E-05               3131           GWF-node number
     2 CALLS TO SPARSE MATRIX SOLVER PACKAGE  IN FLOW TIME STEP     439 STRESS PERIOD       2

 TOTAL OF       2OUTER ITERATIONS
  MAXIMUM CHANGE FOR EACH ITERATION:
   MAX. CHANGE        NODE  MAX. CHANGE        NODE  MAX. CHANGE        NODE  MAX. CHANGE        NODE  MAX. CHANGE        NODE
 ------------------------------------------------------------------------------------------------------------------------------------
   0.53503E-04,       1280 -0.21293E-05,       3131

 NO OUTPUT CONTROL FOR STRESS PERIOD        2   TIME STEP      439



          TIME SUMMARY AT END OF TIME STEP       439 IN STRESS PERIOD         2
                    SECONDS     MINUTES      HOURS       DAYS        YEARS
                    -----------------------------------------------------------
   TIME STEP LENGTH  86.400      1.4400     2.40000E-02 1.00000E-03 2.73785E-06
 STRESS PERIOD TIME  37930.      632.16      10.536     0.43900     1.20192E-03
         TOTAL TIME 1.24330E+05  2072.2      34.536      1.4390     3.93977E-03
1
 ------------------------------------------------------------------------------------------------------------
 
 SOLVING FOR TRANSPORT 

          SEQUENTIAL TRANSPORT ITERATION LOOP NUMBER    1
          -----------------------------------------------

 ------------------------------------------------------------------------------------------------------------------------
     1 CALLS TO SPARSE MATRIX SOLVER PACKAGE IN TRANSPORT TIME STEP     439 STRESS PERIOD       2 SPECIES  1

 TOTAL OF       1OUTER ITERATIONS
  MAXIMUM CHANGE FOR EACH ITERATION:
   MAX. CHANGE        NODE  MAX. CHANGE        NODE  MAX. CHANGE        NODE  MAX. CHANGE        NODE  MAX. CHANGE        NODE
 ------------------------------------------------------------------------------------------------------------------------------------
  -0.44532    ,       1200
     TRANSPORT SOLUTION COMPLETE FOR COMPONENT SPECIES NUMBER    1
     ------------------------------------------------------------

 TRANSPORT SOLUTION COMPLETE FOR ALL SPECIES, SORTING OUTPUT FOR CONCENTRATIONS AND MASS BALANCE
 ----------------------------------------------------------------------------------------------------
     TRANSPORT OUTPUT FOR COMPONENT SPECIES NUMBER    1
     ------------------------------------------------------------
 -------------------------------------------------------------------------------------
 
 SOLVING FOR HEAD 

 Outer-Iteration  Inner-Iteration  Backtracking  Number of        Incoming       Outgoing      Cutoff     Maximum Head Change      Maximum Head Change
     Number           Count           Flag       Backtracks       Residual       Residual      Residual            Value               Location
        1                             0             0          0.191747E-01     0.191747E-01   -1.00000    
        1                9                                                                                       0.296451E-04               1200           GWF-node number
        2                             0             0          0.397882E-04     0.397882E-04   -1.00000    
        2                4                                                                                      -0.239001E-05               3170           GWF-node number
     2 CALLS TO SPARSE MATRIX SOLVER PACKAGE  IN FLOW TIME STEP     440 STRESS PERIOD       2

 TOTAL OF       2OUTER ITERATIONS
  MAXIMUM CHANGE FOR EACH ITERATION:
   MAX. CHANGE        NODE  MAX. CHANGE        NODE  MAX. CHANGE        NODE  MAX. CHANGE        NODE  MAX. CHANGE        NODE
 ------------------------------------------------------------------------------------------------------------------------------------
   0.29645E-04,       1200 -0.23900E-05,       3170

 NO OUTPUT CONTROL FOR STRESS PERIOD        2   TIME STEP      440



          TIME SUMMARY AT END OF TIME STEP       440 IN STRESS PERIOD         2
                    SECONDS     MINUTES      HOURS       DAYS        YEARS
                    -----------------------------------------------------------
   TIME STEP LENGTH  86.400      1.4400     2.40000E-02 1.00000E-03 2.73785E-06
 STRESS PERIOD TIME  38016.      633.60      10.560     0.44000     1.20465E-03
         TOTAL TIME 1.24416E+05  2073.6      34.560      1.4400     3.94251E-03
1
 ------------------------------------------------------------------------------------------------------------
 
 SOLVING FOR TRANSPORT 

          SEQUENTIAL TRANSPORT ITERATION LOOP NUMBER    1
          -----------------------------------------------

 ------------------------------------------------------------------------------------------------------------------------
     1 CALLS TO SPARSE MATRIX SOLVER PACKAGE IN TRANSPORT TIME STEP     440 STRESS PERIOD       2 SPECIES  1

 TOTAL OF       1OUTER ITERATIONS
  MAXIMUM CHANGE FOR EACH ITERATION:
   MAX. CHANGE        NODE  MAX. CHANGE        NODE  MAX. CHANGE        NODE  MAX. CHANGE        NODE  MAX. CHANGE        NODE
 ------------------------------------------------------------------------------------------------------------------------------------
  -0.50734    ,       1200
     TRANSPORT SOLUTION COMPLETE FOR COMPONENT SPECIES NUMBER    1
     ------------------------------------------------------------

 TRANSPORT SOLUTION COMPLETE FOR ALL SPECIES, SORTING OUTPUT FOR CONCENTRATIONS AND MASS BALANCE
 ----------------------------------------------------------------------------------------------------
     TRANSPORT OUTPUT FOR COMPONENT SPECIES NUMBER    1
     ------------------------------------------------------------
 -------------------------------------------------------------------------------------
 
 SOLVING FOR HEAD 

 Outer-Iteration  Inner-Iteration  Backtracking  Number of        Incoming       Outgoing      Cutoff     Maximum Head Change      Maximum Head Change
     Number           Count           Flag       Backtracks       Residual       Residual      Residual            Value               Location
        1                             0             0          0.488723E-01     0.488723E-01   -1.00000    
        1               11                                                                                       0.452336E-04               1200           GWF-node number
        2                             0             0          0.143189E-05     0.143189E-05   -1.00000    
        2                1                                                                                       0.464181E-06               2561           GWF-node number
     2 CALLS TO SPARSE MATRIX SOLVER PACKAGE  IN FLOW TIME STEP     441 STRESS PERIOD       2

 TOTAL OF       2OUTER ITERATIONS
  MAXIMUM CHANGE FOR EACH ITERATION:
   MAX. CHANGE        NODE  MAX. CHANGE        NODE  MAX. CHANGE        NODE  MAX. CHANGE        NODE  MAX. CHANGE        NODE
 ------------------------------------------------------------------------------------------------------------------------------------
   0.45234E-04,       1200  0.46418E-06,       2561

 NO OUTPUT CONTROL FOR STRESS PERIOD        2   TIME STEP      441



          TIME SUMMARY AT END OF TIME STEP       441 IN STRESS PERIOD         2
                    SECONDS     MINUTES      HOURS       DAYS        YEARS
                    -----------------------------------------------------------
   TIME STEP LENGTH  86.400      1.4400     2.40000E-02 1.00000E-03 2.73785E-06
 STRESS PERIOD TIME  38102.      635.04      10.584     0.44100     1.20739E-03
         TOTAL TIME 1.24502E+05  2075.0      34.584      1.4410     3.94524E-03
1
 ------------------------------------------------------------------------------------------------------------
 
 SOLVING FOR TRANSPORT 

          SEQUENTIAL TRANSPORT ITERATION LOOP NUMBER    1
          -----------------------------------------------

 ------------------------------------------------------------------------------------------------------------------------
     1 CALLS TO SPARSE MATRIX SOLVER PACKAGE IN TRANSPORT TIME STEP     441 STRESS PERIOD       2 SPECIES  1

 TOTAL OF       1OUTER ITERATIONS
  MAXIMUM CHANGE FOR EACH ITERATION:
   MAX. CHANGE        NODE  MAX. CHANGE        NODE  MAX. CHANGE        NODE  MAX. CHANGE        NODE  MAX. CHANGE        NODE
 ------------------------------------------------------------------------------------------------------------------------------------
  -0.45441    ,       1200
     TRANSPORT SOLUTION COMPLETE FOR COMPONENT SPECIES NUMBER    1
     ------------------------------------------------------------

 TRANSPORT SOLUTION COMPLETE FOR ALL SPECIES, SORTING OUTPUT FOR CONCENTRATIONS AND MASS BALANCE
 ----------------------------------------------------------------------------------------------------
     TRANSPORT OUTPUT FOR COMPONENT SPECIES NUMBER    1
     ------------------------------------------------------------
 -------------------------------------------------------------------------------------
 
 SOLVING FOR HEAD 

 Outer-Iteration  Inner-Iteration  Backtracking  Number of        Incoming       Outgoing      Cutoff     Maximum Head Change      Maximum Head Change
     Number           Count           Flag       Backtracks       Residual       Residual      Residual            Value               Location
        1                             0             0          0.616641E-01     0.616641E-01   -1.00000    
        1               11                                                                                       0.457717E-04               1200           GWF-node number
        2                             0             0          0.182053E-05     0.182053E-05   -1.00000    
        2                2                                                                                       0.110001E-05               2736           GWF-node number
     2 CALLS TO SPARSE MATRIX SOLVER PACKAGE  IN FLOW TIME STEP     442 STRESS PERIOD       2

 TOTAL OF       2OUTER ITERATIONS
  MAXIMUM CHANGE FOR EACH ITERATION:
   MAX. CHANGE        NODE  MAX. CHANGE        NODE  MAX. CHANGE        NODE  MAX. CHANGE        NODE  MAX. CHANGE        NODE
 ------------------------------------------------------------------------------------------------------------------------------------
   0.45772E-04,       1200  0.11000E-05,       2736

 NO OUTPUT CONTROL FOR STRESS PERIOD        2   TIME STEP      442



          TIME SUMMARY AT END OF TIME STEP       442 IN STRESS PERIOD         2
                    SECONDS     MINUTES      HOURS       DAYS        YEARS
                    -----------------------------------------------------------
   TIME STEP LENGTH  86.400      1.4400     2.40000E-02 1.00000E-03 2.73785E-06
 STRESS PERIOD TIME  38189.      636.48      10.608     0.44200     1.21013E-03
         TOTAL TIME 1.24589E+05  2076.5      34.608      1.4420     3.94798E-03
1
 ------------------------------------------------------------------------------------------------------------
 
 SOLVING FOR TRANSPORT 

          SEQUENTIAL TRANSPORT ITERATION LOOP NUMBER    1
          -----------------------------------------------

 ------------------------------------------------------------------------------------------------------------------------
     1 CALLS TO SPARSE MATRIX SOLVER PACKAGE IN TRANSPORT TIME STEP     442 STRESS PERIOD       2 SPECIES  1

 TOTAL OF       1OUTER ITERATIONS
  MAXIMUM CHANGE FOR EACH ITERATION:
   MAX. CHANGE        NODE  MAX. CHANGE        NODE  MAX. CHANGE        NODE  MAX. CHANGE        NODE  MAX. CHANGE        NODE
 ------------------------------------------------------------------------------------------------------------------------------------
   0.38665    ,       1440
     TRANSPORT SOLUTION COMPLETE FOR COMPONENT SPECIES NUMBER    1
     ------------------------------------------------------------

 TRANSPORT SOLUTION COMPLETE FOR ALL SPECIES, SORTING OUTPUT FOR CONCENTRATIONS AND MASS BALANCE
 ----------------------------------------------------------------------------------------------------
     TRANSPORT OUTPUT FOR COMPONENT SPECIES NUMBER    1
     ------------------------------------------------------------
 -------------------------------------------------------------------------------------
 
 SOLVING FOR HEAD 

 Outer-Iteration  Inner-Iteration  Backtracking  Number of        Incoming       Outgoing      Cutoff     Maximum Head Change      Maximum Head Change
     Number           Count           Flag       Backtracks       Residual       Residual      Residual            Value               Location
        1                             0             0          0.115144E-01     0.115144E-01   -1.00000    
        1               10                                                                                      -0.286143E-04               1440           GWF-node number
        2                             0             0          0.624490E-06     0.624490E-06   -1.00000    
        2                1                                                                                       0.472827E-06               2881           GWF-node number
     2 CALLS TO SPARSE MATRIX SOLVER PACKAGE  IN FLOW TIME STEP     443 STRESS PERIOD       2

 TOTAL OF       2OUTER ITERATIONS
  MAXIMUM CHANGE FOR EACH ITERATION:
   MAX. CHANGE        NODE  MAX. CHANGE        NODE  MAX. CHANGE        NODE  MAX. CHANGE        NODE  MAX. CHANGE        NODE
 ------------------------------------------------------------------------------------------------------------------------------------
  -0.28614E-04,       1440  0.47283E-06,       2881

 NO OUTPUT CONTROL FOR STRESS PERIOD        2   TIME STEP      443



          TIME SUMMARY AT END OF TIME STEP       443 IN STRESS PERIOD         2
                    SECONDS     MINUTES      HOURS       DAYS        YEARS
                    -----------------------------------------------------------
   TIME STEP LENGTH  86.400      1.4400     2.40000E-02 1.00000E-03 2.73785E-06
 STRESS PERIOD TIME  38275.      637.92      10.632     0.44300     1.21287E-03
         TOTAL TIME 1.24675E+05  2077.9      34.632      1.4430     3.95072E-03
1
 ------------------------------------------------------------------------------------------------------------
 
 SOLVING FOR TRANSPORT 

          SEQUENTIAL TRANSPORT ITERATION LOOP NUMBER    1
          -----------------------------------------------

 ------------------------------------------------------------------------------------------------------------------------
     1 CALLS TO SPARSE MATRIX SOLVER PACKAGE IN TRANSPORT TIME STEP     443 STRESS PERIOD       2 SPECIES  1

 TOTAL OF       1OUTER ITERATIONS
  MAXIMUM CHANGE FOR EACH ITERATION:
   MAX. CHANGE        NODE  MAX. CHANGE        NODE  MAX. CHANGE        NODE  MAX. CHANGE        NODE  MAX. CHANGE        NODE
 ------------------------------------------------------------------------------------------------------------------------------------
   0.38820    ,       1360
     TRANSPORT SOLUTION COMPLETE FOR COMPONENT SPECIES NUMBER    1
     ------------------------------------------------------------

 TRANSPORT SOLUTION COMPLETE FOR ALL SPECIES, SORTING OUTPUT FOR CONCENTRATIONS AND MASS BALANCE
 ----------------------------------------------------------------------------------------------------
     TRANSPORT OUTPUT FOR COMPONENT SPECIES NUMBER    1
     ------------------------------------------------------------
 -------------------------------------------------------------------------------------
 
 SOLVING FOR HEAD 

 Outer-Iteration  Inner-Iteration  Backtracking  Number of        Incoming       Outgoing      Cutoff     Maximum Head Change      Maximum Head Change
     Number           Count           Flag       Backtracks       Residual       Residual      Residual            Value               Location
        1                             0             0          0.871883E-02     0.871883E-02   -1.00000    
        1               11                                                                                      -0.250493E-04               1440           GWF-node number
        2                             0             0          0.249813E-06     0.249813E-06   -1.00000    
        2                1                                                                                       0.608723E-06               2498           GWF-node number
     2 CALLS TO SPARSE MATRIX SOLVER PACKAGE  IN FLOW TIME STEP     444 STRESS PERIOD       2

 TOTAL OF       2OUTER ITERATIONS
  MAXIMUM CHANGE FOR EACH ITERATION:
   MAX. CHANGE        NODE  MAX. CHANGE        NODE  MAX. CHANGE        NODE  MAX. CHANGE        NODE  MAX. CHANGE        NODE
 ------------------------------------------------------------------------------------------------------------------------------------
  -0.25049E-04,       1440  0.60872E-06,       2498

 NO OUTPUT CONTROL FOR STRESS PERIOD        2   TIME STEP      444



          TIME SUMMARY AT END OF TIME STEP       444 IN STRESS PERIOD         2
                    SECONDS     MINUTES      HOURS       DAYS        YEARS
                    -----------------------------------------------------------
   TIME STEP LENGTH  86.400      1.4400     2.40000E-02 1.00000E-03 2.73785E-06
 STRESS PERIOD TIME  38362.      639.36      10.656     0.44400     1.21561E-03
         TOTAL TIME 1.24762E+05  2079.4      34.656      1.4440     3.95346E-03
1
 ------------------------------------------------------------------------------------------------------------
 
 SOLVING FOR TRANSPORT 

          SEQUENTIAL TRANSPORT ITERATION LOOP NUMBER    1
          -----------------------------------------------

 ------------------------------------------------------------------------------------------------------------------------
     1 CALLS TO SPARSE MATRIX SOLVER PACKAGE IN TRANSPORT TIME STEP     444 STRESS PERIOD       2 SPECIES  1

 TOTAL OF       1OUTER ITERATIONS
  MAXIMUM CHANGE FOR EACH ITERATION:
   MAX. CHANGE        NODE  MAX. CHANGE        NODE  MAX. CHANGE        NODE  MAX. CHANGE        NODE  MAX. CHANGE        NODE
 ------------------------------------------------------------------------------------------------------------------------------------
   0.45160    ,       1360
     TRANSPORT SOLUTION COMPLETE FOR COMPONENT SPECIES NUMBER    1
     ------------------------------------------------------------

 TRANSPORT SOLUTION COMPLETE FOR ALL SPECIES, SORTING OUTPUT FOR CONCENTRATIONS AND MASS BALANCE
 ----------------------------------------------------------------------------------------------------
     TRANSPORT OUTPUT FOR COMPONENT SPECIES NUMBER    1
     ------------------------------------------------------------
 -------------------------------------------------------------------------------------
 
 SOLVING FOR HEAD 

 Outer-Iteration  Inner-Iteration  Backtracking  Number of        Incoming       Outgoing      Cutoff     Maximum Head Change      Maximum Head Change
     Number           Count           Flag       Backtracks       Residual       Residual      Residual            Value               Location
        1                             0             0          0.106408E-01     0.106408E-01   -1.00000    
        1               10                                                                                      -0.267665E-04               1360           GWF-node number
        2                             0             0          0.158278E-06     0.158278E-06   -1.00000    
        2                1                                                                                       0.454793E-06               1543           GWF-node number
     2 CALLS TO SPARSE MATRIX SOLVER PACKAGE  IN FLOW TIME STEP     445 STRESS PERIOD       2

 TOTAL OF       2OUTER ITERATIONS
  MAXIMUM CHANGE FOR EACH ITERATION:
   MAX. CHANGE        NODE  MAX. CHANGE        NODE  MAX. CHANGE        NODE  MAX. CHANGE        NODE  MAX. CHANGE        NODE
 ------------------------------------------------------------------------------------------------------------------------------------
  -0.26766E-04,       1360  0.45479E-06,       1543

 NO OUTPUT CONTROL FOR STRESS PERIOD        2   TIME STEP      445



          TIME SUMMARY AT END OF TIME STEP       445 IN STRESS PERIOD         2
                    SECONDS     MINUTES      HOURS       DAYS        YEARS
                    -----------------------------------------------------------
   TIME STEP LENGTH  86.400      1.4400     2.40000E-02 1.00000E-03 2.73785E-06
 STRESS PERIOD TIME  38448.      640.80      10.680     0.44500     1.21834E-03
         TOTAL TIME 1.24848E+05  2080.8      34.680      1.4450     3.95619E-03
1
 ------------------------------------------------------------------------------------------------------------
 
 SOLVING FOR TRANSPORT 

          SEQUENTIAL TRANSPORT ITERATION LOOP NUMBER    1
          -----------------------------------------------

 ------------------------------------------------------------------------------------------------------------------------
     1 CALLS TO SPARSE MATRIX SOLVER PACKAGE IN TRANSPORT TIME STEP     445 STRESS PERIOD       2 SPECIES  1

 TOTAL OF       1OUTER ITERATIONS
  MAXIMUM CHANGE FOR EACH ITERATION:
   MAX. CHANGE        NODE  MAX. CHANGE        NODE  MAX. CHANGE        NODE  MAX. CHANGE        NODE  MAX. CHANGE        NODE
 ------------------------------------------------------------------------------------------------------------------------------------
   0.39835    ,       1280
     TRANSPORT SOLUTION COMPLETE FOR COMPONENT SPECIES NUMBER    1
     ------------------------------------------------------------

 TRANSPORT SOLUTION COMPLETE FOR ALL SPECIES, SORTING OUTPUT FOR CONCENTRATIONS AND MASS BALANCE
 ----------------------------------------------------------------------------------------------------
     TRANSPORT OUTPUT FOR COMPONENT SPECIES NUMBER    1
     ------------------------------------------------------------
 -------------------------------------------------------------------------------------
 
 SOLVING FOR HEAD 

 Outer-Iteration  Inner-Iteration  Backtracking  Number of        Incoming       Outgoing      Cutoff     Maximum Head Change      Maximum Head Change
     Number           Count           Flag       Backtracks       Residual       Residual      Residual            Value               Location
        1                             0             0          0.833466E-02     0.833466E-02   -1.00000    
        1               11                                                                                      -0.229434E-04               1360           GWF-node number
        2                             0             0          0.785507E-06     0.785507E-06   -1.00000    
        2                2                                                                                       0.218411E-05               1044           GWF-node number
     2 CALLS TO SPARSE MATRIX SOLVER PACKAGE  IN FLOW TIME STEP     446 STRESS PERIOD       2

 TOTAL OF       2OUTER ITERATIONS
  MAXIMUM CHANGE FOR EACH ITERATION:
   MAX. CHANGE        NODE  MAX. CHANGE        NODE  MAX. CHANGE        NODE  MAX. CHANGE        NODE  MAX. CHANGE        NODE
 ------------------------------------------------------------------------------------------------------------------------------------
  -0.22943E-04,       1360  0.21841E-05,       1044

 NO OUTPUT CONTROL FOR STRESS PERIOD        2   TIME STEP      446



          TIME SUMMARY AT END OF TIME STEP       446 IN STRESS PERIOD         2
                    SECONDS     MINUTES      HOURS       DAYS        YEARS
                    -----------------------------------------------------------
   TIME STEP LENGTH  86.400      1.4400     2.40000E-02 1.00000E-03 2.73785E-06
 STRESS PERIOD TIME  38534.      642.24      10.704     0.44600     1.22108E-03
         TOTAL TIME 1.24934E+05  2082.2      34.704      1.4460     3.95893E-03
1
 ------------------------------------------------------------------------------------------------------------
 
 SOLVING FOR TRANSPORT 

          SEQUENTIAL TRANSPORT ITERATION LOOP NUMBER    1
          -----------------------------------------------

 ------------------------------------------------------------------------------------------------------------------------
     1 CALLS TO SPARSE MATRIX SOLVER PACKAGE IN TRANSPORT TIME STEP     446 STRESS PERIOD       2 SPECIES  1

 TOTAL OF       1OUTER ITERATIONS
  MAXIMUM CHANGE FOR EACH ITERATION:
   MAX. CHANGE        NODE  MAX. CHANGE        NODE  MAX. CHANGE        NODE  MAX. CHANGE        NODE  MAX. CHANGE        NODE
 ------------------------------------------------------------------------------------------------------------------------------------
   0.40060    ,       1280
     TRANSPORT SOLUTION COMPLETE FOR COMPONENT SPECIES NUMBER    1
     ------------------------------------------------------------

 TRANSPORT SOLUTION COMPLETE FOR ALL SPECIES, SORTING OUTPUT FOR CONCENTRATIONS AND MASS BALANCE
 ----------------------------------------------------------------------------------------------------
     TRANSPORT OUTPUT FOR COMPONENT SPECIES NUMBER    1
     ------------------------------------------------------------
 -------------------------------------------------------------------------------------
 
 SOLVING FOR HEAD 

 Outer-Iteration  Inner-Iteration  Backtracking  Number of        Incoming       Outgoing      Cutoff     Maximum Head Change      Maximum Head Change
     Number           Count           Flag       Backtracks       Residual       Residual      Residual            Value               Location
        1                             0             0          0.720688E-02     0.720688E-02   -1.00000    
        1               11                                                                                       0.195847E-04                790           GWF-node number
        2                             0             0          0.149791E-06     0.149791E-06   -1.00000    
        2                1                                                                                       0.653405E-06               2083           GWF-node number
     2 CALLS TO SPARSE MATRIX SOLVER PACKAGE  IN FLOW TIME STEP     447 STRESS PERIOD       2

 TOTAL OF       2OUTER ITERATIONS
  MAXIMUM CHANGE FOR EACH ITERATION:
   MAX. CHANGE        NODE  MAX. CHANGE        NODE  MAX. CHANGE        NODE  MAX. CHANGE        NODE  MAX. CHANGE        NODE
 ------------------------------------------------------------------------------------------------------------------------------------
   0.19585E-04,        790  0.65340E-06,       2083

 NO OUTPUT CONTROL FOR STRESS PERIOD        2   TIME STEP      447



          TIME SUMMARY AT END OF TIME STEP       447 IN STRESS PERIOD         2
                    SECONDS     MINUTES      HOURS       DAYS        YEARS
                    -----------------------------------------------------------
   TIME STEP LENGTH  86.400      1.4400     2.40000E-02 1.00000E-03 2.73785E-06
 STRESS PERIOD TIME  38621.      643.68      10.728     0.44700     1.22382E-03
         TOTAL TIME 1.25021E+05  2083.7      34.728      1.4470     3.96167E-03
1
 ------------------------------------------------------------------------------------------------------------
 
 SOLVING FOR TRANSPORT 

          SEQUENTIAL TRANSPORT ITERATION LOOP NUMBER    1
          -----------------------------------------------

 ------------------------------------------------------------------------------------------------------------------------
     1 CALLS TO SPARSE MATRIX SOLVER PACKAGE IN TRANSPORT TIME STEP     447 STRESS PERIOD       2 SPECIES  1

 TOTAL OF       1OUTER ITERATIONS
  MAXIMUM CHANGE FOR EACH ITERATION:
   MAX. CHANGE        NODE  MAX. CHANGE        NODE  MAX. CHANGE        NODE  MAX. CHANGE        NODE  MAX. CHANGE        NODE
 ------------------------------------------------------------------------------------------------------------------------------------
   0.37043    ,       1280
     TRANSPORT SOLUTION COMPLETE FOR COMPONENT SPECIES NUMBER    1
     ------------------------------------------------------------

 TRANSPORT SOLUTION COMPLETE FOR ALL SPECIES, SORTING OUTPUT FOR CONCENTRATIONS AND MASS BALANCE
 ----------------------------------------------------------------------------------------------------
     TRANSPORT OUTPUT FOR COMPONENT SPECIES NUMBER    1
     ------------------------------------------------------------
 -------------------------------------------------------------------------------------
 
 SOLVING FOR HEAD 

 Outer-Iteration  Inner-Iteration  Backtracking  Number of        Incoming       Outgoing      Cutoff     Maximum Head Change      Maximum Head Change
     Number           Count           Flag       Backtracks       Residual       Residual      Residual            Value               Location
        1                             0             0          0.865265E-02     0.865265E-02   -1.00000    
        1               10                                                                                      -0.218294E-04               1280           GWF-node number
        2                             0             0          0.155123E-05     0.155123E-05   -1.00000    
        2                2                                                                                       0.118467E-05                748           GWF-node number
     2 CALLS TO SPARSE MATRIX SOLVER PACKAGE  IN FLOW TIME STEP     448 STRESS PERIOD       2

 TOTAL OF       2OUTER ITERATIONS
  MAXIMUM CHANGE FOR EACH ITERATION:
   MAX. CHANGE        NODE  MAX. CHANGE        NODE  MAX. CHANGE        NODE  MAX. CHANGE        NODE  MAX. CHANGE        NODE
 ------------------------------------------------------------------------------------------------------------------------------------
  -0.21829E-04,       1280  0.11847E-05,        748

 NO OUTPUT CONTROL FOR STRESS PERIOD        2   TIME STEP      448



          TIME SUMMARY AT END OF TIME STEP       448 IN STRESS PERIOD         2
                    SECONDS     MINUTES      HOURS       DAYS        YEARS
                    -----------------------------------------------------------
   TIME STEP LENGTH  86.400      1.4400     2.40000E-02 1.00000E-03 2.73785E-06
 STRESS PERIOD TIME  38707.      645.12      10.752     0.44800     1.22656E-03
         TOTAL TIME 1.25107E+05  2085.1      34.752      1.4480     3.96441E-03
1
 ------------------------------------------------------------------------------------------------------------
 
 SOLVING FOR TRANSPORT 

          SEQUENTIAL TRANSPORT ITERATION LOOP NUMBER    1
          -----------------------------------------------

 ------------------------------------------------------------------------------------------------------------------------
     1 CALLS TO SPARSE MATRIX SOLVER PACKAGE IN TRANSPORT TIME STEP     448 STRESS PERIOD       2 SPECIES  1

 TOTAL OF       1OUTER ITERATIONS
  MAXIMUM CHANGE FOR EACH ITERATION:
   MAX. CHANGE        NODE  MAX. CHANGE        NODE  MAX. CHANGE        NODE  MAX. CHANGE        NODE  MAX. CHANGE        NODE
 ------------------------------------------------------------------------------------------------------------------------------------
   0.31204    ,       1040
     TRANSPORT SOLUTION COMPLETE FOR COMPONENT SPECIES NUMBER    1
     ------------------------------------------------------------

 TRANSPORT SOLUTION COMPLETE FOR ALL SPECIES, SORTING OUTPUT FOR CONCENTRATIONS AND MASS BALANCE
 ----------------------------------------------------------------------------------------------------
     TRANSPORT OUTPUT FOR COMPONENT SPECIES NUMBER    1
     ------------------------------------------------------------
 -------------------------------------------------------------------------------------
 
 SOLVING FOR HEAD 

 Outer-Iteration  Inner-Iteration  Backtracking  Number of        Incoming       Outgoing      Cutoff     Maximum Head Change      Maximum Head Change
     Number           Count           Flag       Backtracks       Residual       Residual      Residual            Value               Location
        1                             0             0          0.595601E-02     0.595601E-02   -1.00000    
        1                9                                                                                      -0.169522E-04               1280           GWF-node number
        2                             0             0          0.152019E-04     0.152019E-04   -1.00000    
        2                5                                                                                       0.257470E-05               3073           GWF-node number
     2 CALLS TO SPARSE MATRIX SOLVER PACKAGE  IN FLOW TIME STEP     449 STRESS PERIOD       2

 TOTAL OF       2OUTER ITERATIONS
  MAXIMUM CHANGE FOR EACH ITERATION:
   MAX. CHANGE        NODE  MAX. CHANGE        NODE  MAX. CHANGE        NODE  MAX. CHANGE        NODE  MAX. CHANGE        NODE
 ------------------------------------------------------------------------------------------------------------------------------------
  -0.16952E-04,       1280  0.25747E-05,       3073

 NO OUTPUT CONTROL FOR STRESS PERIOD        2   TIME STEP      449



          TIME SUMMARY AT END OF TIME STEP       449 IN STRESS PERIOD         2
                    SECONDS     MINUTES      HOURS       DAYS        YEARS
                    -----------------------------------------------------------
   TIME STEP LENGTH  86.400      1.4400     2.40000E-02 1.00000E-03 2.73785E-06
 STRESS PERIOD TIME  38794.      646.56      10.776     0.44900     1.22930E-03
         TOTAL TIME 1.25194E+05  2086.6      34.776      1.4490     3.96715E-03
1
 ------------------------------------------------------------------------------------------------------------
 
 SOLVING FOR TRANSPORT 

          SEQUENTIAL TRANSPORT ITERATION LOOP NUMBER    1
          -----------------------------------------------

 ------------------------------------------------------------------------------------------------------------------------
     1 CALLS TO SPARSE MATRIX SOLVER PACKAGE IN TRANSPORT TIME STEP     449 STRESS PERIOD       2 SPECIES  1

 TOTAL OF       1OUTER ITERATIONS
  MAXIMUM CHANGE FOR EACH ITERATION:
   MAX. CHANGE        NODE  MAX. CHANGE        NODE  MAX. CHANGE        NODE  MAX. CHANGE        NODE  MAX. CHANGE        NODE
 ------------------------------------------------------------------------------------------------------------------------------------
   0.25327    ,        960
     TRANSPORT SOLUTION COMPLETE FOR COMPONENT SPECIES NUMBER    1
     ------------------------------------------------------------

 TRANSPORT SOLUTION COMPLETE FOR ALL SPECIES, SORTING OUTPUT FOR CONCENTRATIONS AND MASS BALANCE
 ----------------------------------------------------------------------------------------------------
     TRANSPORT OUTPUT FOR COMPONENT SPECIES NUMBER    1
     ------------------------------------------------------------
 -------------------------------------------------------------------------------------
 
 SOLVING FOR HEAD 

 Outer-Iteration  Inner-Iteration  Backtracking  Number of        Incoming       Outgoing      Cutoff     Maximum Head Change      Maximum Head Change
     Number           Count           Flag       Backtracks       Residual       Residual      Residual            Value               Location
        1                             0             0          0.349652E-02     0.349652E-02   -1.00000    
        1                9                                                                                       0.150885E-04               1517           GWF-node number
        2                             0             0          0.989365E-06     0.989365E-06   -1.00000    
        2                1                                                                                      -0.393182E-06                590           GWF-node number
     2 CALLS TO SPARSE MATRIX SOLVER PACKAGE  IN FLOW TIME STEP     450 STRESS PERIOD       2

 TOTAL OF       2OUTER ITERATIONS
  MAXIMUM CHANGE FOR EACH ITERATION:
   MAX. CHANGE        NODE  MAX. CHANGE        NODE  MAX. CHANGE        NODE  MAX. CHANGE        NODE  MAX. CHANGE        NODE
 ------------------------------------------------------------------------------------------------------------------------------------
   0.15088E-04,       1517 -0.39318E-06,        590

 NO OUTPUT CONTROL FOR STRESS PERIOD        2   TIME STEP      450



          TIME SUMMARY AT END OF TIME STEP       450 IN STRESS PERIOD         2
                    SECONDS     MINUTES      HOURS       DAYS        YEARS
                    -----------------------------------------------------------
   TIME STEP LENGTH  86.400      1.4400     2.40000E-02 1.00000E-03 2.73785E-06
 STRESS PERIOD TIME  38880.      648.00      10.800     0.45000     1.23203E-03
         TOTAL TIME 1.25280E+05  2088.0      34.800      1.4500     3.96988E-03
1
 ------------------------------------------------------------------------------------------------------------
 
 SOLVING FOR TRANSPORT 

          SEQUENTIAL TRANSPORT ITERATION LOOP NUMBER    1
          -----------------------------------------------

 ------------------------------------------------------------------------------------------------------------------------
     1 CALLS TO SPARSE MATRIX SOLVER PACKAGE IN TRANSPORT TIME STEP     450 STRESS PERIOD       2 SPECIES  1

 TOTAL OF       1OUTER ITERATIONS
  MAXIMUM CHANGE FOR EACH ITERATION:
   MAX. CHANGE        NODE  MAX. CHANGE        NODE  MAX. CHANGE        NODE  MAX. CHANGE        NODE  MAX. CHANGE        NODE
 ------------------------------------------------------------------------------------------------------------------------------------
   0.19590    ,        880
     TRANSPORT SOLUTION COMPLETE FOR COMPONENT SPECIES NUMBER    1
     ------------------------------------------------------------

 TRANSPORT SOLUTION COMPLETE FOR ALL SPECIES, SORTING OUTPUT FOR CONCENTRATIONS AND MASS BALANCE
 ----------------------------------------------------------------------------------------------------
     TRANSPORT OUTPUT FOR COMPONENT SPECIES NUMBER    1
     ------------------------------------------------------------
 -------------------------------------------------------------------------------------
 
 SOLVING FOR HEAD 

 Outer-Iteration  Inner-Iteration  Backtracking  Number of        Incoming       Outgoing      Cutoff     Maximum Head Change      Maximum Head Change
     Number           Count           Flag       Backtracks       Residual       Residual      Residual            Value               Location
        1                             0             0          0.329706E-02     0.329706E-02   -1.00000    
        1               12                                                                                       0.156508E-04               1517           GWF-node number
        2                             0             0          0.146055E-07     0.146055E-07   -1.00000    
        2                1                                                                                      -0.235313E-06               2881           GWF-node number
     2 CALLS TO SPARSE MATRIX SOLVER PACKAGE  IN FLOW TIME STEP     451 STRESS PERIOD       2

 TOTAL OF       2OUTER ITERATIONS
  MAXIMUM CHANGE FOR EACH ITERATION:
   MAX. CHANGE        NODE  MAX. CHANGE        NODE  MAX. CHANGE        NODE  MAX. CHANGE        NODE  MAX. CHANGE        NODE
 ------------------------------------------------------------------------------------------------------------------------------------
   0.15651E-04,       1517 -0.23531E-06,       2881

 NO OUTPUT CONTROL FOR STRESS PERIOD        2   TIME STEP      451



          TIME SUMMARY AT END OF TIME STEP       451 IN STRESS PERIOD         2
                    SECONDS     MINUTES      HOURS       DAYS        YEARS
                    -----------------------------------------------------------
   TIME STEP LENGTH  86.400      1.4400     2.40000E-02 1.00000E-03 2.73785E-06
 STRESS PERIOD TIME  38966.      649.44      10.824     0.45100     1.23477E-03
         TOTAL TIME 1.25366E+05  2089.4      34.824      1.4510     3.97262E-03
1
 ------------------------------------------------------------------------------------------------------------
 
 SOLVING FOR TRANSPORT 

          SEQUENTIAL TRANSPORT ITERATION LOOP NUMBER    1
          -----------------------------------------------

 ------------------------------------------------------------------------------------------------------------------------
     1 CALLS TO SPARSE MATRIX SOLVER PACKAGE IN TRANSPORT TIME STEP     451 STRESS PERIOD       2 SPECIES  1

 TOTAL OF       1OUTER ITERATIONS
  MAXIMUM CHANGE FOR EACH ITERATION:
   MAX. CHANGE        NODE  MAX. CHANGE        NODE  MAX. CHANGE        NODE  MAX. CHANGE        NODE  MAX. CHANGE        NODE
 ------------------------------------------------------------------------------------------------------------------------------------
  -0.14625    ,       1520
     TRANSPORT SOLUTION COMPLETE FOR COMPONENT SPECIES NUMBER    1
     ------------------------------------------------------------

 TRANSPORT SOLUTION COMPLETE FOR ALL SPECIES, SORTING OUTPUT FOR CONCENTRATIONS AND MASS BALANCE
 ----------------------------------------------------------------------------------------------------
     TRANSPORT OUTPUT FOR COMPONENT SPECIES NUMBER    1
     ------------------------------------------------------------
 -------------------------------------------------------------------------------------
 
 SOLVING FOR HEAD 

 Outer-Iteration  Inner-Iteration  Backtracking  Number of        Incoming       Outgoing      Cutoff     Maximum Head Change      Maximum Head Change
     Number           Count           Flag       Backtracks       Residual       Residual      Residual            Value               Location
        1                             0             0          0.339645E-02     0.339645E-02   -1.00000    
        1                9                                                                                       0.187051E-04               1438           GWF-node number
        2                             0             0          0.650771E-06     0.650771E-06   -1.00000    
        2                3                                                                                      -0.675431E-06               2340           GWF-node number
     2 CALLS TO SPARSE MATRIX SOLVER PACKAGE  IN FLOW TIME STEP     452 STRESS PERIOD       2

 TOTAL OF       2OUTER ITERATIONS
  MAXIMUM CHANGE FOR EACH ITERATION:
   MAX. CHANGE        NODE  MAX. CHANGE        NODE  MAX. CHANGE        NODE  MAX. CHANGE        NODE  MAX. CHANGE        NODE
 ------------------------------------------------------------------------------------------------------------------------------------
   0.18705E-04,       1438 -0.67543E-06,       2340

 NO OUTPUT CONTROL FOR STRESS PERIOD        2   TIME STEP      452



          TIME SUMMARY AT END OF TIME STEP       452 IN STRESS PERIOD         2
                    SECONDS     MINUTES      HOURS       DAYS        YEARS
                    -----------------------------------------------------------
   TIME STEP LENGTH  86.400      1.4400     2.40000E-02 1.00000E-03 2.73785E-06
 STRESS PERIOD TIME  39053.      650.88      10.848     0.45200     1.23751E-03
         TOTAL TIME 1.25453E+05  2090.9      34.848      1.4520     3.97536E-03
1
 ------------------------------------------------------------------------------------------------------------
 
 SOLVING FOR TRANSPORT 

          SEQUENTIAL TRANSPORT ITERATION LOOP NUMBER    1
          -----------------------------------------------

 ------------------------------------------------------------------------------------------------------------------------
     1 CALLS TO SPARSE MATRIX SOLVER PACKAGE IN TRANSPORT TIME STEP     452 STRESS PERIOD       2 SPECIES  1

 TOTAL OF       1OUTER ITERATIONS
  MAXIMUM CHANGE FOR EACH ITERATION:
   MAX. CHANGE        NODE  MAX. CHANGE        NODE  MAX. CHANGE        NODE  MAX. CHANGE        NODE  MAX. CHANGE        NODE
 ------------------------------------------------------------------------------------------------------------------------------------
  -0.17829    ,       1520
     TRANSPORT SOLUTION COMPLETE FOR COMPONENT SPECIES NUMBER    1
     ------------------------------------------------------------

 TRANSPORT SOLUTION COMPLETE FOR ALL SPECIES, SORTING OUTPUT FOR CONCENTRATIONS AND MASS BALANCE
 ----------------------------------------------------------------------------------------------------
     TRANSPORT OUTPUT FOR COMPONENT SPECIES NUMBER    1
     ------------------------------------------------------------
 -------------------------------------------------------------------------------------
 
 SOLVING FOR HEAD 

 Outer-Iteration  Inner-Iteration  Backtracking  Number of        Incoming       Outgoing      Cutoff     Maximum Head Change      Maximum Head Change
     Number           Count           Flag       Backtracks       Residual       Residual      Residual            Value               Location
        1                             0             0          0.391607E-02     0.391607E-02   -1.00000    
        1               10                                                                                       0.203662E-04               1438           GWF-node number
        2                             0             0          0.475511E-06     0.475511E-06   -1.00000    
        2                1                                                                                      -0.552303E-06               2881           GWF-node number
     2 CALLS TO SPARSE MATRIX SOLVER PACKAGE  IN FLOW TIME STEP     453 STRESS PERIOD       2

 TOTAL OF       2OUTER ITERATIONS
  MAXIMUM CHANGE FOR EACH ITERATION:
   MAX. CHANGE        NODE  MAX. CHANGE        NODE  MAX. CHANGE        NODE  MAX. CHANGE        NODE  MAX. CHANGE        NODE
 ------------------------------------------------------------------------------------------------------------------------------------
   0.20366E-04,       1438 -0.55230E-06,       2881

 NO OUTPUT CONTROL FOR STRESS PERIOD        2   TIME STEP      453



          TIME SUMMARY AT END OF TIME STEP       453 IN STRESS PERIOD         2
                    SECONDS     MINUTES      HOURS       DAYS        YEARS
                    -----------------------------------------------------------
   TIME STEP LENGTH  86.400      1.4400     2.40000E-02 1.00000E-03 2.73785E-06
 STRESS PERIOD TIME  39139.      652.32      10.872     0.45300     1.24025E-03
         TOTAL TIME 1.25539E+05  2092.3      34.872      1.4530     3.97810E-03
1
 ------------------------------------------------------------------------------------------------------------
 
 SOLVING FOR TRANSPORT 

          SEQUENTIAL TRANSPORT ITERATION LOOP NUMBER    1
          -----------------------------------------------

 ------------------------------------------------------------------------------------------------------------------------
     1 CALLS TO SPARSE MATRIX SOLVER PACKAGE IN TRANSPORT TIME STEP     453 STRESS PERIOD       2 SPECIES  1

 TOTAL OF       1OUTER ITERATIONS
  MAXIMUM CHANGE FOR EACH ITERATION:
   MAX. CHANGE        NODE  MAX. CHANGE        NODE  MAX. CHANGE        NODE  MAX. CHANGE        NODE  MAX. CHANGE        NODE
 ------------------------------------------------------------------------------------------------------------------------------------
  -0.21768    ,       1520
     TRANSPORT SOLUTION COMPLETE FOR COMPONENT SPECIES NUMBER    1
     ------------------------------------------------------------

 TRANSPORT SOLUTION COMPLETE FOR ALL SPECIES, SORTING OUTPUT FOR CONCENTRATIONS AND MASS BALANCE
 ----------------------------------------------------------------------------------------------------
     TRANSPORT OUTPUT FOR COMPONENT SPECIES NUMBER    1
     ------------------------------------------------------------
 -------------------------------------------------------------------------------------
 
 SOLVING FOR HEAD 

 Outer-Iteration  Inner-Iteration  Backtracking  Number of        Incoming       Outgoing      Cutoff     Maximum Head Change      Maximum Head Change
     Number           Count           Flag       Backtracks       Residual       Residual      Residual            Value               Location
        1                             0             0          0.520565E-02     0.520565E-02   -1.00000    
        1                8                                                                                       0.205540E-04               1438           GWF-node number
        2                             0             0          0.460508E-05     0.460508E-05   -1.00000    
        2                3                                                                                       0.995847E-06               3167           GWF-node number
     2 CALLS TO SPARSE MATRIX SOLVER PACKAGE  IN FLOW TIME STEP     454 STRESS PERIOD       2

 TOTAL OF       2OUTER ITERATIONS
  MAXIMUM CHANGE FOR EACH ITERATION:
   MAX. CHANGE        NODE  MAX. CHANGE        NODE  MAX. CHANGE        NODE  MAX. CHANGE        NODE  MAX. CHANGE        NODE
 ------------------------------------------------------------------------------------------------------------------------------------
   0.20554E-04,       1438  0.99585E-06,       3167

 NO OUTPUT CONTROL FOR STRESS PERIOD        2   TIME STEP      454



          TIME SUMMARY AT END OF TIME STEP       454 IN STRESS PERIOD         2
                    SECONDS     MINUTES      HOURS       DAYS        YEARS
                    -----------------------------------------------------------
   TIME STEP LENGTH  86.400      1.4400     2.40000E-02 1.00000E-03 2.73785E-06
 STRESS PERIOD TIME  39226.      653.76      10.896     0.45400     1.24298E-03
         TOTAL TIME 1.25626E+05  2093.8      34.896      1.4540     3.98083E-03
1
 ------------------------------------------------------------------------------------------------------------
 
 SOLVING FOR TRANSPORT 

          SEQUENTIAL TRANSPORT ITERATION LOOP NUMBER    1
          -----------------------------------------------

 ------------------------------------------------------------------------------------------------------------------------
     1 CALLS TO SPARSE MATRIX SOLVER PACKAGE IN TRANSPORT TIME STEP     454 STRESS PERIOD       2 SPECIES  1

 TOTAL OF       1OUTER ITERATIONS
  MAXIMUM CHANGE FOR EACH ITERATION:
   MAX. CHANGE        NODE  MAX. CHANGE        NODE  MAX. CHANGE        NODE  MAX. CHANGE        NODE  MAX. CHANGE        NODE
 ------------------------------------------------------------------------------------------------------------------------------------
  -0.26360    ,       1440
     TRANSPORT SOLUTION COMPLETE FOR COMPONENT SPECIES NUMBER    1
     ------------------------------------------------------------

 TRANSPORT SOLUTION COMPLETE FOR ALL SPECIES, SORTING OUTPUT FOR CONCENTRATIONS AND MASS BALANCE
 ----------------------------------------------------------------------------------------------------
     TRANSPORT OUTPUT FOR COMPONENT SPECIES NUMBER    1
     ------------------------------------------------------------
 -------------------------------------------------------------------------------------
 
 SOLVING FOR HEAD 

 Outer-Iteration  Inner-Iteration  Backtracking  Number of        Incoming       Outgoing      Cutoff     Maximum Head Change      Maximum Head Change
     Number           Count           Flag       Backtracks       Residual       Residual      Residual            Value               Location
        1                             0             0          0.531858E-02     0.531858E-02   -1.00000    
        1               11                                                                                       0.208646E-04               1439           GWF-node number
        2                             0             0          0.319798E-06     0.319798E-06   -1.00000    
        2                1                                                                                      -0.871167E-06               2961           GWF-node number
     2 CALLS TO SPARSE MATRIX SOLVER PACKAGE  IN FLOW TIME STEP     455 STRESS PERIOD       2

 TOTAL OF       2OUTER ITERATIONS
  MAXIMUM CHANGE FOR EACH ITERATION:
   MAX. CHANGE        NODE  MAX. CHANGE        NODE  MAX. CHANGE        NODE  MAX. CHANGE        NODE  MAX. CHANGE        NODE
 ------------------------------------------------------------------------------------------------------------------------------------
   0.20865E-04,       1439 -0.87117E-06,       2961

 NO OUTPUT CONTROL FOR STRESS PERIOD        2   TIME STEP      455



          TIME SUMMARY AT END OF TIME STEP       455 IN STRESS PERIOD         2
                    SECONDS     MINUTES      HOURS       DAYS        YEARS
                    -----------------------------------------------------------
   TIME STEP LENGTH  86.400      1.4400     2.40000E-02 1.00000E-03 2.73785E-06
 STRESS PERIOD TIME  39312.      655.20      10.920     0.45500     1.24572E-03
         TOTAL TIME 1.25712E+05  2095.2      34.920      1.4550     3.98357E-03
1
 ------------------------------------------------------------------------------------------------------------
 
 SOLVING FOR TRANSPORT 

          SEQUENTIAL TRANSPORT ITERATION LOOP NUMBER    1
          -----------------------------------------------

 ------------------------------------------------------------------------------------------------------------------------
     1 CALLS TO SPARSE MATRIX SOLVER PACKAGE IN TRANSPORT TIME STEP     455 STRESS PERIOD       2 SPECIES  1

 TOTAL OF       1OUTER ITERATIONS
  MAXIMUM CHANGE FOR EACH ITERATION:
   MAX. CHANGE        NODE  MAX. CHANGE        NODE  MAX. CHANGE        NODE  MAX. CHANGE        NODE  MAX. CHANGE        NODE
 ------------------------------------------------------------------------------------------------------------------------------------
  -0.31387    ,       1440
     TRANSPORT SOLUTION COMPLETE FOR COMPONENT SPECIES NUMBER    1
     ------------------------------------------------------------

 TRANSPORT SOLUTION COMPLETE FOR ALL SPECIES, SORTING OUTPUT FOR CONCENTRATIONS AND MASS BALANCE
 ----------------------------------------------------------------------------------------------------
     TRANSPORT OUTPUT FOR COMPONENT SPECIES NUMBER    1
     ------------------------------------------------------------
 -------------------------------------------------------------------------------------
 
 SOLVING FOR HEAD 

 Outer-Iteration  Inner-Iteration  Backtracking  Number of        Incoming       Outgoing      Cutoff     Maximum Head Change      Maximum Head Change
     Number           Count           Flag       Backtracks       Residual       Residual      Residual            Value               Location
        1                             0             0          0.874848E-02     0.874848E-02   -1.00000    
        1               11                                                                                       0.248682E-04               1359           GWF-node number
        2                             0             0          0.146869E-06     0.146869E-06   -1.00000    
        2                1                                                                                      -0.229535E-06               2825           GWF-node number
     2 CALLS TO SPARSE MATRIX SOLVER PACKAGE  IN FLOW TIME STEP     456 STRESS PERIOD       2

 TOTAL OF       2OUTER ITERATIONS
  MAXIMUM CHANGE FOR EACH ITERATION:
   MAX. CHANGE        NODE  MAX. CHANGE        NODE  MAX. CHANGE        NODE  MAX. CHANGE        NODE  MAX. CHANGE        NODE
 ------------------------------------------------------------------------------------------------------------------------------------
   0.24868E-04,       1359 -0.22953E-06,       2825

 NO OUTPUT CONTROL FOR STRESS PERIOD        2   TIME STEP      456



          TIME SUMMARY AT END OF TIME STEP       456 IN STRESS PERIOD         2
                    SECONDS     MINUTES      HOURS       DAYS        YEARS
                    -----------------------------------------------------------
   TIME STEP LENGTH  86.400      1.4400     2.40000E-02 1.00000E-03 2.73785E-06
 STRESS PERIOD TIME  39398.      656.64      10.944     0.45600     1.24846E-03
         TOTAL TIME 1.25798E+05  2096.6      34.944      1.4560     3.98631E-03
1
 ------------------------------------------------------------------------------------------------------------
 
 SOLVING FOR TRANSPORT 

          SEQUENTIAL TRANSPORT ITERATION LOOP NUMBER    1
          -----------------------------------------------

 ------------------------------------------------------------------------------------------------------------------------
     1 CALLS TO SPARSE MATRIX SOLVER PACKAGE IN TRANSPORT TIME STEP     456 STRESS PERIOD       2 SPECIES  1

 TOTAL OF       1OUTER ITERATIONS
  MAXIMUM CHANGE FOR EACH ITERATION:
   MAX. CHANGE        NODE  MAX. CHANGE        NODE  MAX. CHANGE        NODE  MAX. CHANGE        NODE  MAX. CHANGE        NODE
 ------------------------------------------------------------------------------------------------------------------------------------
  -0.31187    ,       1360
     TRANSPORT SOLUTION COMPLETE FOR COMPONENT SPECIES NUMBER    1
     ------------------------------------------------------------

 TRANSPORT SOLUTION COMPLETE FOR ALL SPECIES, SORTING OUTPUT FOR CONCENTRATIONS AND MASS BALANCE
 ----------------------------------------------------------------------------------------------------
     TRANSPORT OUTPUT FOR COMPONENT SPECIES NUMBER    1
     ------------------------------------------------------------
 -------------------------------------------------------------------------------------
 
 SOLVING FOR HEAD 

 Outer-Iteration  Inner-Iteration  Backtracking  Number of        Incoming       Outgoing      Cutoff     Maximum Head Change      Maximum Head Change
     Number           Count           Flag       Backtracks       Residual       Residual      Residual            Value               Location
        1                             0             0          0.805797E-02     0.805797E-02   -1.00000    
        1               10                                                                                       0.286260E-04               1359           GWF-node number
        2                             0             0          0.641619E-06     0.641619E-06   -1.00000    
        2                1                                                                                      -0.685715E-06               1960           GWF-node number
     2 CALLS TO SPARSE MATRIX SOLVER PACKAGE  IN FLOW TIME STEP     457 STRESS PERIOD       2

 TOTAL OF       2OUTER ITERATIONS
  MAXIMUM CHANGE FOR EACH ITERATION:
   MAX. CHANGE        NODE  MAX. CHANGE        NODE  MAX. CHANGE        NODE  MAX. CHANGE        NODE  MAX. CHANGE        NODE
 ------------------------------------------------------------------------------------------------------------------------------------
   0.28626E-04,       1359 -0.68572E-06,       1960

 NO OUTPUT CONTROL FOR STRESS PERIOD        2   TIME STEP      457



          TIME SUMMARY AT END OF TIME STEP       457 IN STRESS PERIOD         2
                    SECONDS     MINUTES      HOURS       DAYS        YEARS
                    -----------------------------------------------------------
   TIME STEP LENGTH  86.400      1.4400     2.40000E-02 1.00000E-03 2.73785E-06
 STRESS PERIOD TIME  39485.      658.08      10.968     0.45700     1.25120E-03
         TOTAL TIME 1.25885E+05  2098.1      34.968      1.4570     3.98905E-03
1
 ------------------------------------------------------------------------------------------------------------
 
 SOLVING FOR TRANSPORT 

          SEQUENTIAL TRANSPORT ITERATION LOOP NUMBER    1
          -----------------------------------------------

 ------------------------------------------------------------------------------------------------------------------------
     1 CALLS TO SPARSE MATRIX SOLVER PACKAGE IN TRANSPORT TIME STEP     457 STRESS PERIOD       2 SPECIES  1

 TOTAL OF       1OUTER ITERATIONS
  MAXIMUM CHANGE FOR EACH ITERATION:
   MAX. CHANGE        NODE  MAX. CHANGE        NODE  MAX. CHANGE        NODE  MAX. CHANGE        NODE  MAX. CHANGE        NODE
 ------------------------------------------------------------------------------------------------------------------------------------
  -0.40223    ,       1360
     TRANSPORT SOLUTION COMPLETE FOR COMPONENT SPECIES NUMBER    1
     ------------------------------------------------------------

 TRANSPORT SOLUTION COMPLETE FOR ALL SPECIES, SORTING OUTPUT FOR CONCENTRATIONS AND MASS BALANCE
 ----------------------------------------------------------------------------------------------------
     TRANSPORT OUTPUT FOR COMPONENT SPECIES NUMBER    1
     ------------------------------------------------------------
 -------------------------------------------------------------------------------------
 
 SOLVING FOR HEAD 

 Outer-Iteration  Inner-Iteration  Backtracking  Number of        Incoming       Outgoing      Cutoff     Maximum Head Change      Maximum Head Change
     Number           Count           Flag       Backtracks       Residual       Residual      Residual            Value               Location
        1                             0             0          0.174214E-01     0.174214E-01   -1.00000    
        1               11                                                                                       0.341655E-04               1360           GWF-node number
        2                             0             0          0.506374E-06     0.506374E-06   -1.00000    
        2                2                                                                                       0.988534E-06               3015           GWF-node number
     2 CALLS TO SPARSE MATRIX SOLVER PACKAGE  IN FLOW TIME STEP     458 STRESS PERIOD       2

 TOTAL OF       2OUTER ITERATIONS
  MAXIMUM CHANGE FOR EACH ITERATION:
   MAX. CHANGE        NODE  MAX. CHANGE        NODE  MAX. CHANGE        NODE  MAX. CHANGE        NODE  MAX. CHANGE        NODE
 ------------------------------------------------------------------------------------------------------------------------------------
   0.34166E-04,       1360  0.98853E-06,       3015

 NO OUTPUT CONTROL FOR STRESS PERIOD        2   TIME STEP      458



          TIME SUMMARY AT END OF TIME STEP       458 IN STRESS PERIOD         2
                    SECONDS     MINUTES      HOURS       DAYS        YEARS
                    -----------------------------------------------------------
   TIME STEP LENGTH  86.400      1.4400     2.40000E-02 1.00000E-03 2.73785E-06
 STRESS PERIOD TIME  39571.      659.52      10.992     0.45800     1.25394E-03
         TOTAL TIME 1.25971E+05  2099.5      34.992      1.4580     3.99179E-03
1
 ------------------------------------------------------------------------------------------------------------
 
 SOLVING FOR TRANSPORT 

          SEQUENTIAL TRANSPORT ITERATION LOOP NUMBER    1
          -----------------------------------------------

 ------------------------------------------------------------------------------------------------------------------------
     1 CALLS TO SPARSE MATRIX SOLVER PACKAGE IN TRANSPORT TIME STEP     458 STRESS PERIOD       2 SPECIES  1

 TOTAL OF       1OUTER ITERATIONS
  MAXIMUM CHANGE FOR EACH ITERATION:
   MAX. CHANGE        NODE  MAX. CHANGE        NODE  MAX. CHANGE        NODE  MAX. CHANGE        NODE  MAX. CHANGE        NODE
 ------------------------------------------------------------------------------------------------------------------------------------
  -0.34683    ,       1360
     TRANSPORT SOLUTION COMPLETE FOR COMPONENT SPECIES NUMBER    1
     ------------------------------------------------------------

 TRANSPORT SOLUTION COMPLETE FOR ALL SPECIES, SORTING OUTPUT FOR CONCENTRATIONS AND MASS BALANCE
 ----------------------------------------------------------------------------------------------------
     TRANSPORT OUTPUT FOR COMPONENT SPECIES NUMBER    1
     ------------------------------------------------------------
 -------------------------------------------------------------------------------------
 
 SOLVING FOR HEAD 

 Outer-Iteration  Inner-Iteration  Backtracking  Number of        Incoming       Outgoing      Cutoff     Maximum Head Change      Maximum Head Change
     Number           Count           Flag       Backtracks       Residual       Residual      Residual            Value               Location
        1                             0             0          0.123256E-01     0.123256E-01   -1.00000    
        1               11                                                                                       0.271414E-04               1360           GWF-node number
        2                             0             0          0.404046E-06     0.404046E-06   -1.00000    
        2                1                                                                                       0.395039E-06               1785           GWF-node number
     2 CALLS TO SPARSE MATRIX SOLVER PACKAGE  IN FLOW TIME STEP     459 STRESS PERIOD       2

 TOTAL OF       2OUTER ITERATIONS
  MAXIMUM CHANGE FOR EACH ITERATION:
   MAX. CHANGE        NODE  MAX. CHANGE        NODE  MAX. CHANGE        NODE  MAX. CHANGE        NODE  MAX. CHANGE        NODE
 ------------------------------------------------------------------------------------------------------------------------------------
   0.27141E-04,       1360  0.39504E-06,       1785

 NO OUTPUT CONTROL FOR STRESS PERIOD        2   TIME STEP      459



          TIME SUMMARY AT END OF TIME STEP       459 IN STRESS PERIOD         2
                    SECONDS     MINUTES      HOURS       DAYS        YEARS
                    -----------------------------------------------------------
   TIME STEP LENGTH  86.400      1.4400     2.40000E-02 1.00000E-03 2.73785E-06
 STRESS PERIOD TIME  39658.      660.96      11.016     0.45900     1.25667E-03
         TOTAL TIME 1.26058E+05  2101.0      35.016      1.4590     3.99452E-03
1
 ------------------------------------------------------------------------------------------------------------
 
 SOLVING FOR TRANSPORT 

          SEQUENTIAL TRANSPORT ITERATION LOOP NUMBER    1
          -----------------------------------------------

 ------------------------------------------------------------------------------------------------------------------------
     1 CALLS TO SPARSE MATRIX SOLVER PACKAGE IN TRANSPORT TIME STEP     459 STRESS PERIOD       2 SPECIES  1

 TOTAL OF       1OUTER ITERATIONS
  MAXIMUM CHANGE FOR EACH ITERATION:
   MAX. CHANGE        NODE  MAX. CHANGE        NODE  MAX. CHANGE        NODE  MAX. CHANGE        NODE  MAX. CHANGE        NODE
 ------------------------------------------------------------------------------------------------------------------------------------
  -0.31976    ,       1280
     TRANSPORT SOLUTION COMPLETE FOR COMPONENT SPECIES NUMBER    1
     ------------------------------------------------------------

 TRANSPORT SOLUTION COMPLETE FOR ALL SPECIES, SORTING OUTPUT FOR CONCENTRATIONS AND MASS BALANCE
 ----------------------------------------------------------------------------------------------------
     TRANSPORT OUTPUT FOR COMPONENT SPECIES NUMBER    1
     ------------------------------------------------------------
 -------------------------------------------------------------------------------------
 
 SOLVING FOR HEAD 

 Outer-Iteration  Inner-Iteration  Backtracking  Number of        Incoming       Outgoing      Cutoff     Maximum Head Change      Maximum Head Change
     Number           Count           Flag       Backtracks       Residual       Residual      Residual            Value               Location
        1                             0             0          0.860342E-02     0.860342E-02   -1.00000    
        1               10                                                                                       0.232342E-04               1279           GWF-node number
        2                             0             0          0.147815E-05     0.147815E-05   -1.00000    
        2                1                                                                                      -0.944030E-06               1621           GWF-node number
     2 CALLS TO SPARSE MATRIX SOLVER PACKAGE  IN FLOW TIME STEP     460 STRESS PERIOD       2

 TOTAL OF       2OUTER ITERATIONS
  MAXIMUM CHANGE FOR EACH ITERATION:
   MAX. CHANGE        NODE  MAX. CHANGE        NODE  MAX. CHANGE        NODE  MAX. CHANGE        NODE  MAX. CHANGE        NODE
 ------------------------------------------------------------------------------------------------------------------------------------
   0.23234E-04,       1279 -0.94403E-06,       1621

 NO OUTPUT CONTROL FOR STRESS PERIOD        2   TIME STEP      460



          TIME SUMMARY AT END OF TIME STEP       460 IN STRESS PERIOD         2
                    SECONDS     MINUTES      HOURS       DAYS        YEARS
                    -----------------------------------------------------------
   TIME STEP LENGTH  86.400      1.4400     2.40000E-02 1.00000E-03 2.73785E-06
 STRESS PERIOD TIME  39744.      662.40      11.040     0.46000     1.25941E-03
         TOTAL TIME 1.26144E+05  2102.4      35.040      1.4600     3.99726E-03
1
 ------------------------------------------------------------------------------------------------------------
 
 SOLVING FOR TRANSPORT 

          SEQUENTIAL TRANSPORT ITERATION LOOP NUMBER    1
          -----------------------------------------------

 ------------------------------------------------------------------------------------------------------------------------
     1 CALLS TO SPARSE MATRIX SOLVER PACKAGE IN TRANSPORT TIME STEP     460 STRESS PERIOD       2 SPECIES  1

 TOTAL OF       1OUTER ITERATIONS
  MAXIMUM CHANGE FOR EACH ITERATION:
   MAX. CHANGE        NODE  MAX. CHANGE        NODE  MAX. CHANGE        NODE  MAX. CHANGE        NODE  MAX. CHANGE        NODE
 ------------------------------------------------------------------------------------------------------------------------------------
  -0.41555    ,       1280
     TRANSPORT SOLUTION COMPLETE FOR COMPONENT SPECIES NUMBER    1
     ------------------------------------------------------------

 TRANSPORT SOLUTION COMPLETE FOR ALL SPECIES, SORTING OUTPUT FOR CONCENTRATIONS AND MASS BALANCE
 ----------------------------------------------------------------------------------------------------
     TRANSPORT OUTPUT FOR COMPONENT SPECIES NUMBER    1
     ------------------------------------------------------------
 -------------------------------------------------------------------------------------
 
 SOLVING FOR HEAD 

 Outer-Iteration  Inner-Iteration  Backtracking  Number of        Incoming       Outgoing      Cutoff     Maximum Head Change      Maximum Head Change
     Number           Count           Flag       Backtracks       Residual       Residual      Residual            Value               Location
        1                             0             0          0.219743E-01     0.219743E-01   -1.00000    
        1                8                                                                                       0.350108E-04               1280           GWF-node number
        2                             0             0          0.948271E-05     0.948271E-05   -1.00000    
        2                2                                                                                      -0.469806E-05               2561           GWF-node number
     2 CALLS TO SPARSE MATRIX SOLVER PACKAGE  IN FLOW TIME STEP     461 STRESS PERIOD       2

 TOTAL OF       2OUTER ITERATIONS
  MAXIMUM CHANGE FOR EACH ITERATION:
   MAX. CHANGE        NODE  MAX. CHANGE        NODE  MAX. CHANGE        NODE  MAX. CHANGE        NODE  MAX. CHANGE        NODE
 ------------------------------------------------------------------------------------------------------------------------------------
   0.35011E-04,       1280 -0.46981E-05,       2561

 NO OUTPUT CONTROL FOR STRESS PERIOD        2   TIME STEP      461



          TIME SUMMARY AT END OF TIME STEP       461 IN STRESS PERIOD         2
                    SECONDS     MINUTES      HOURS       DAYS        YEARS
                    -----------------------------------------------------------
   TIME STEP LENGTH  86.400      1.4400     2.40000E-02 1.00000E-03 2.73785E-06
 STRESS PERIOD TIME  39830.      663.84      11.064     0.46100     1.26215E-03
         TOTAL TIME 1.26230E+05  2103.8      35.064      1.4610     4.00000E-03
1
 ------------------------------------------------------------------------------------------------------------
 
 SOLVING FOR TRANSPORT 

          SEQUENTIAL TRANSPORT ITERATION LOOP NUMBER    1
          -----------------------------------------------

 ------------------------------------------------------------------------------------------------------------------------
     1 CALLS TO SPARSE MATRIX SOLVER PACKAGE IN TRANSPORT TIME STEP     461 STRESS PERIOD       2 SPECIES  1

 TOTAL OF       1OUTER ITERATIONS
  MAXIMUM CHANGE FOR EACH ITERATION:
   MAX. CHANGE        NODE  MAX. CHANGE        NODE  MAX. CHANGE        NODE  MAX. CHANGE        NODE  MAX. CHANGE        NODE
 ------------------------------------------------------------------------------------------------------------------------------------
  -0.57230    ,       1280
     TRANSPORT SOLUTION COMPLETE FOR COMPONENT SPECIES NUMBER    1
     ------------------------------------------------------------

 TRANSPORT SOLUTION COMPLETE FOR ALL SPECIES, SORTING OUTPUT FOR CONCENTRATIONS AND MASS BALANCE
 ----------------------------------------------------------------------------------------------------
     TRANSPORT OUTPUT FOR COMPONENT SPECIES NUMBER    1
     ------------------------------------------------------------
 -------------------------------------------------------------------------------------
 
 SOLVING FOR HEAD 

 Outer-Iteration  Inner-Iteration  Backtracking  Number of        Incoming       Outgoing      Cutoff     Maximum Head Change      Maximum Head Change
     Number           Count           Flag       Backtracks       Residual       Residual      Residual            Value               Location
        1                             0             0          0.574999E-01     0.574999E-01   -1.00000    
        1               11                                                                                       0.516496E-04               1280           GWF-node number
        2                             0             0          0.465076E-05     0.465076E-05   -1.00000    
        2                3                                                                                      -0.972880E-06                641           GWF-node number
     2 CALLS TO SPARSE MATRIX SOLVER PACKAGE  IN FLOW TIME STEP     462 STRESS PERIOD       2

 TOTAL OF       2OUTER ITERATIONS
  MAXIMUM CHANGE FOR EACH ITERATION:
   MAX. CHANGE        NODE  MAX. CHANGE        NODE  MAX. CHANGE        NODE  MAX. CHANGE        NODE  MAX. CHANGE        NODE
 ------------------------------------------------------------------------------------------------------------------------------------
   0.51650E-04,       1280 -0.97288E-06,        641

 NO OUTPUT CONTROL FOR STRESS PERIOD        2   TIME STEP      462



          TIME SUMMARY AT END OF TIME STEP       462 IN STRESS PERIOD         2
                    SECONDS     MINUTES      HOURS       DAYS        YEARS
                    -----------------------------------------------------------
   TIME STEP LENGTH  86.400      1.4400     2.40000E-02 1.00000E-03 2.73785E-06
 STRESS PERIOD TIME  39917.      665.28      11.088     0.46200     1.26489E-03
         TOTAL TIME 1.26317E+05  2105.3      35.088      1.4620     4.00274E-03
1
 ------------------------------------------------------------------------------------------------------------
 
 SOLVING FOR TRANSPORT 

          SEQUENTIAL TRANSPORT ITERATION LOOP NUMBER    1
          -----------------------------------------------

 ------------------------------------------------------------------------------------------------------------------------
     1 CALLS TO SPARSE MATRIX SOLVER PACKAGE IN TRANSPORT TIME STEP     462 STRESS PERIOD       2 SPECIES  1

 TOTAL OF       1OUTER ITERATIONS
  MAXIMUM CHANGE FOR EACH ITERATION:
   MAX. CHANGE        NODE  MAX. CHANGE        NODE  MAX. CHANGE        NODE  MAX. CHANGE        NODE  MAX. CHANGE        NODE
 ------------------------------------------------------------------------------------------------------------------------------------
  -0.45315    ,       1200
     TRANSPORT SOLUTION COMPLETE FOR COMPONENT SPECIES NUMBER    1
     ------------------------------------------------------------

 TRANSPORT SOLUTION COMPLETE FOR ALL SPECIES, SORTING OUTPUT FOR CONCENTRATIONS AND MASS BALANCE
 ----------------------------------------------------------------------------------------------------
     TRANSPORT OUTPUT FOR COMPONENT SPECIES NUMBER    1
     ------------------------------------------------------------
 -------------------------------------------------------------------------------------
 
 SOLVING FOR HEAD 

 Outer-Iteration  Inner-Iteration  Backtracking  Number of        Incoming       Outgoing      Cutoff     Maximum Head Change      Maximum Head Change
     Number           Count           Flag       Backtracks       Residual       Residual      Residual            Value               Location
        1                             0             0          0.209028E-01     0.209028E-01   -1.00000    
        1               11                                                                                       0.314575E-04               1200           GWF-node number
        2                             0             0          0.567387E-06     0.567387E-06   -1.00000    
        2                1                                                                                       0.608852E-06               1781           GWF-node number
     2 CALLS TO SPARSE MATRIX SOLVER PACKAGE  IN FLOW TIME STEP     463 STRESS PERIOD       2

 TOTAL OF       2OUTER ITERATIONS
  MAXIMUM CHANGE FOR EACH ITERATION:
   MAX. CHANGE        NODE  MAX. CHANGE        NODE  MAX. CHANGE        NODE  MAX. CHANGE        NODE  MAX. CHANGE        NODE
 ------------------------------------------------------------------------------------------------------------------------------------
   0.31458E-04,       1200  0.60885E-06,       1781

 NO OUTPUT CONTROL FOR STRESS PERIOD        2   TIME STEP      463



          TIME SUMMARY AT END OF TIME STEP       463 IN STRESS PERIOD         2
                    SECONDS     MINUTES      HOURS       DAYS        YEARS
                    -----------------------------------------------------------
   TIME STEP LENGTH  86.400      1.4400     2.40000E-02 1.00000E-03 2.73785E-06
 STRESS PERIOD TIME  40003.      666.72      11.112     0.46300     1.26762E-03
         TOTAL TIME 1.26403E+05  2106.7      35.112      1.4630     4.00548E-03
1
 ------------------------------------------------------------------------------------------------------------
 
 SOLVING FOR TRANSPORT 

          SEQUENTIAL TRANSPORT ITERATION LOOP NUMBER    1
          -----------------------------------------------

 ------------------------------------------------------------------------------------------------------------------------
     1 CALLS TO SPARSE MATRIX SOLVER PACKAGE IN TRANSPORT TIME STEP     463 STRESS PERIOD       2 SPECIES  1

 TOTAL OF       1OUTER ITERATIONS
  MAXIMUM CHANGE FOR EACH ITERATION:
   MAX. CHANGE        NODE  MAX. CHANGE        NODE  MAX. CHANGE        NODE  MAX. CHANGE        NODE  MAX. CHANGE        NODE
 ------------------------------------------------------------------------------------------------------------------------------------
  -0.54355    ,       1200
     TRANSPORT SOLUTION COMPLETE FOR COMPONENT SPECIES NUMBER    1
     ------------------------------------------------------------

 TRANSPORT SOLUTION COMPLETE FOR ALL SPECIES, SORTING OUTPUT FOR CONCENTRATIONS AND MASS BALANCE
 ----------------------------------------------------------------------------------------------------
     TRANSPORT OUTPUT FOR COMPONENT SPECIES NUMBER    1
     ------------------------------------------------------------
 -------------------------------------------------------------------------------------
 
 SOLVING FOR HEAD 

 Outer-Iteration  Inner-Iteration  Backtracking  Number of        Incoming       Outgoing      Cutoff     Maximum Head Change      Maximum Head Change
     Number           Count           Flag       Backtracks       Residual       Residual      Residual            Value               Location
        1                             0             0          0.585399E-01     0.585399E-01   -1.00000    
        1               12                                                                                       0.492115E-04               1200           GWF-node number
        2                             0             0          0.324612E-06     0.324612E-06   -1.00000    
        2                1                                                                                       0.614010E-06               2881           GWF-node number
     2 CALLS TO SPARSE MATRIX SOLVER PACKAGE  IN FLOW TIME STEP     464 STRESS PERIOD       2

 TOTAL OF       2OUTER ITERATIONS
  MAXIMUM CHANGE FOR EACH ITERATION:
   MAX. CHANGE        NODE  MAX. CHANGE        NODE  MAX. CHANGE        NODE  MAX. CHANGE        NODE  MAX. CHANGE        NODE
 ------------------------------------------------------------------------------------------------------------------------------------
   0.49212E-04,       1200  0.61401E-06,       2881

 NO OUTPUT CONTROL FOR STRESS PERIOD        2   TIME STEP      464



          TIME SUMMARY AT END OF TIME STEP       464 IN STRESS PERIOD         2
                    SECONDS     MINUTES      HOURS       DAYS        YEARS
                    -----------------------------------------------------------
   TIME STEP LENGTH  86.400      1.4400     2.40000E-02 1.00000E-03 2.73785E-06
 STRESS PERIOD TIME  40090.      668.16      11.136     0.46400     1.27036E-03
         TOTAL TIME 1.26490E+05  2108.2      35.136      1.4640     4.00821E-03
1
 ------------------------------------------------------------------------------------------------------------
 
 SOLVING FOR TRANSPORT 

          SEQUENTIAL TRANSPORT ITERATION LOOP NUMBER    1
          -----------------------------------------------

 ------------------------------------------------------------------------------------------------------------------------
     1 CALLS TO SPARSE MATRIX SOLVER PACKAGE IN TRANSPORT TIME STEP     464 STRESS PERIOD       2 SPECIES  1

 TOTAL OF       1OUTER ITERATIONS
  MAXIMUM CHANGE FOR EACH ITERATION:
   MAX. CHANGE        NODE  MAX. CHANGE        NODE  MAX. CHANGE        NODE  MAX. CHANGE        NODE  MAX. CHANGE        NODE
 ------------------------------------------------------------------------------------------------------------------------------------
  -0.36284    ,       1200
     TRANSPORT SOLUTION COMPLETE FOR COMPONENT SPECIES NUMBER    1
     ------------------------------------------------------------

 TRANSPORT SOLUTION COMPLETE FOR ALL SPECIES, SORTING OUTPUT FOR CONCENTRATIONS AND MASS BALANCE
 ----------------------------------------------------------------------------------------------------
     TRANSPORT OUTPUT FOR COMPONENT SPECIES NUMBER    1
     ------------------------------------------------------------
 -------------------------------------------------------------------------------------
 
 SOLVING FOR HEAD 

 Outer-Iteration  Inner-Iteration  Backtracking  Number of        Incoming       Outgoing      Cutoff     Maximum Head Change      Maximum Head Change
     Number           Count           Flag       Backtracks       Residual       Residual      Residual            Value               Location
        1                             0             0          0.450115E-01     0.450115E-01   -1.00000    
        1               12                                                                                       0.375272E-04               1200           GWF-node number
        2                             0             0          0.464960E-06     0.464960E-06   -1.00000    
        2                3                                                                                      -0.191341E-06               1184           GWF-node number
     2 CALLS TO SPARSE MATRIX SOLVER PACKAGE  IN FLOW TIME STEP     465 STRESS PERIOD       2

 TOTAL OF       2OUTER ITERATIONS
  MAXIMUM CHANGE FOR EACH ITERATION:
   MAX. CHANGE        NODE  MAX. CHANGE        NODE  MAX. CHANGE        NODE  MAX. CHANGE        NODE  MAX. CHANGE        NODE
 ------------------------------------------------------------------------------------------------------------------------------------
   0.37527E-04,       1200 -0.19134E-06,       1184

 NO OUTPUT CONTROL FOR STRESS PERIOD        2   TIME STEP      465



          TIME SUMMARY AT END OF TIME STEP       465 IN STRESS PERIOD         2
                    SECONDS     MINUTES      HOURS       DAYS        YEARS
                    -----------------------------------------------------------
   TIME STEP LENGTH  86.400      1.4400     2.40000E-02 1.00000E-03 2.73785E-06
 STRESS PERIOD TIME  40176.      669.60      11.160     0.46500     1.27310E-03
         TOTAL TIME 1.26576E+05  2109.6      35.160      1.4650     4.01095E-03
1
 ------------------------------------------------------------------------------------------------------------
 
 SOLVING FOR TRANSPORT 

          SEQUENTIAL TRANSPORT ITERATION LOOP NUMBER    1
          -----------------------------------------------

 ------------------------------------------------------------------------------------------------------------------------
     1 CALLS TO SPARSE MATRIX SOLVER PACKAGE IN TRANSPORT TIME STEP     465 STRESS PERIOD       2 SPECIES  1

 TOTAL OF       1OUTER ITERATIONS
  MAXIMUM CHANGE FOR EACH ITERATION:
   MAX. CHANGE        NODE  MAX. CHANGE        NODE  MAX. CHANGE        NODE  MAX. CHANGE        NODE  MAX. CHANGE        NODE
 ------------------------------------------------------------------------------------------------------------------------------------
   0.38866    ,       1440
     TRANSPORT SOLUTION COMPLETE FOR COMPONENT SPECIES NUMBER    1
     ------------------------------------------------------------

 TRANSPORT SOLUTION COMPLETE FOR ALL SPECIES, SORTING OUTPUT FOR CONCENTRATIONS AND MASS BALANCE
 ----------------------------------------------------------------------------------------------------
     TRANSPORT OUTPUT FOR COMPONENT SPECIES NUMBER    1
     ------------------------------------------------------------
 -------------------------------------------------------------------------------------
 
 SOLVING FOR HEAD 

 Outer-Iteration  Inner-Iteration  Backtracking  Number of        Incoming       Outgoing      Cutoff     Maximum Head Change      Maximum Head Change
     Number           Count           Flag       Backtracks       Residual       Residual      Residual            Value               Location
        1                             0             0          0.105995E-01     0.105995E-01   -1.00000    
        1               11                                                                                      -0.284663E-04               1440           GWF-node number
        2                             0             0          0.840176E-06     0.840176E-06   -1.00000    
        2                1                                                                                      -0.688972E-06               2014           GWF-node number
     2 CALLS TO SPARSE MATRIX SOLVER PACKAGE  IN FLOW TIME STEP     466 STRESS PERIOD       2

 TOTAL OF       2OUTER ITERATIONS
  MAXIMUM CHANGE FOR EACH ITERATION:
   MAX. CHANGE        NODE  MAX. CHANGE        NODE  MAX. CHANGE        NODE  MAX. CHANGE        NODE  MAX. CHANGE        NODE
 ------------------------------------------------------------------------------------------------------------------------------------
  -0.28466E-04,       1440 -0.68897E-06,       2014

 NO OUTPUT CONTROL FOR STRESS PERIOD        2   TIME STEP      466



          TIME SUMMARY AT END OF TIME STEP       466 IN STRESS PERIOD         2
                    SECONDS     MINUTES      HOURS       DAYS        YEARS
                    -----------------------------------------------------------
   TIME STEP LENGTH  86.400      1.4400     2.40000E-02 1.00000E-03 2.73785E-06
 STRESS PERIOD TIME  40262.      671.04      11.184     0.46600     1.27584E-03
         TOTAL TIME 1.26662E+05  2111.0      35.184      1.4660     4.01369E-03
1
 ------------------------------------------------------------------------------------------------------------
 
 SOLVING FOR TRANSPORT 

          SEQUENTIAL TRANSPORT ITERATION LOOP NUMBER    1
          -----------------------------------------------

 ------------------------------------------------------------------------------------------------------------------------
     1 CALLS TO SPARSE MATRIX SOLVER PACKAGE IN TRANSPORT TIME STEP     466 STRESS PERIOD       2 SPECIES  1

 TOTAL OF       1OUTER ITERATIONS
  MAXIMUM CHANGE FOR EACH ITERATION:
   MAX. CHANGE        NODE  MAX. CHANGE        NODE  MAX. CHANGE        NODE  MAX. CHANGE        NODE  MAX. CHANGE        NODE
 ------------------------------------------------------------------------------------------------------------------------------------
   0.40420    ,       1360
     TRANSPORT SOLUTION COMPLETE FOR COMPONENT SPECIES NUMBER    1
     ------------------------------------------------------------

 TRANSPORT SOLUTION COMPLETE FOR ALL SPECIES, SORTING OUTPUT FOR CONCENTRATIONS AND MASS BALANCE
 ----------------------------------------------------------------------------------------------------
     TRANSPORT OUTPUT FOR COMPONENT SPECIES NUMBER    1
     ------------------------------------------------------------
 -------------------------------------------------------------------------------------
 
 SOLVING FOR HEAD 

 Outer-Iteration  Inner-Iteration  Backtracking  Number of        Incoming       Outgoing      Cutoff     Maximum Head Change      Maximum Head Change
     Number           Count           Flag       Backtracks       Residual       Residual      Residual            Value               Location
        1                             0             0          0.886048E-02     0.886048E-02   -1.00000    
        1               11                                                                                      -0.232089E-04               1440           GWF-node number
        2                             0             0          0.547638E-06     0.547638E-06   -1.00000    
        2                3                                                                                       0.706688E-06               1535           GWF-node number
     2 CALLS TO SPARSE MATRIX SOLVER PACKAGE  IN FLOW TIME STEP     467 STRESS PERIOD       2

 TOTAL OF       2OUTER ITERATIONS
  MAXIMUM CHANGE FOR EACH ITERATION:
   MAX. CHANGE        NODE  MAX. CHANGE        NODE  MAX. CHANGE        NODE  MAX. CHANGE        NODE  MAX. CHANGE        NODE
 ------------------------------------------------------------------------------------------------------------------------------------
  -0.23209E-04,       1440  0.70669E-06,       1535

 NO OUTPUT CONTROL FOR STRESS PERIOD        2   TIME STEP      467



          TIME SUMMARY AT END OF TIME STEP       467 IN STRESS PERIOD         2
                    SECONDS     MINUTES      HOURS       DAYS        YEARS
                    -----------------------------------------------------------
   TIME STEP LENGTH  86.400      1.4400     2.40000E-02 1.00000E-03 2.73785E-06
 STRESS PERIOD TIME  40349.      672.48      11.208     0.46700     1.27858E-03
         TOTAL TIME 1.26749E+05  2112.5      35.208      1.4670     4.01643E-03
1
 ------------------------------------------------------------------------------------------------------------
 
 SOLVING FOR TRANSPORT 

          SEQUENTIAL TRANSPORT ITERATION LOOP NUMBER    1
          -----------------------------------------------

 ------------------------------------------------------------------------------------------------------------------------
     1 CALLS TO SPARSE MATRIX SOLVER PACKAGE IN TRANSPORT TIME STEP     467 STRESS PERIOD       2 SPECIES  1

 TOTAL OF       1OUTER ITERATIONS
  MAXIMUM CHANGE FOR EACH ITERATION:
   MAX. CHANGE        NODE  MAX. CHANGE        NODE  MAX. CHANGE        NODE  MAX. CHANGE        NODE  MAX. CHANGE        NODE
 ------------------------------------------------------------------------------------------------------------------------------------
   0.44614    ,       1360
     TRANSPORT SOLUTION COMPLETE FOR COMPONENT SPECIES NUMBER    1
     ------------------------------------------------------------

 TRANSPORT SOLUTION COMPLETE FOR ALL SPECIES, SORTING OUTPUT FOR CONCENTRATIONS AND MASS BALANCE
 ----------------------------------------------------------------------------------------------------
     TRANSPORT OUTPUT FOR COMPONENT SPECIES NUMBER    1
     ------------------------------------------------------------
 -------------------------------------------------------------------------------------
 
 SOLVING FOR HEAD 

 Outer-Iteration  Inner-Iteration  Backtracking  Number of        Incoming       Outgoing      Cutoff     Maximum Head Change      Maximum Head Change
     Number           Count           Flag       Backtracks       Residual       Residual      Residual            Value               Location
        1                             0             0          0.990079E-02     0.990079E-02   -1.00000    
        1                9                                                                                      -0.266157E-04               1360           GWF-node number
        2                             0             0          0.135027E-05     0.135027E-05   -1.00000    
        2                2                                                                                       0.283609E-05               1846           GWF-node number
     2 CALLS TO SPARSE MATRIX SOLVER PACKAGE  IN FLOW TIME STEP     468 STRESS PERIOD       2

 TOTAL OF       2OUTER ITERATIONS
  MAXIMUM CHANGE FOR EACH ITERATION:
   MAX. CHANGE        NODE  MAX. CHANGE        NODE  MAX. CHANGE        NODE  MAX. CHANGE        NODE  MAX. CHANGE        NODE
 ------------------------------------------------------------------------------------------------------------------------------------
  -0.26616E-04,       1360  0.28361E-05,       1846

 NO OUTPUT CONTROL FOR STRESS PERIOD        2   TIME STEP      468



          TIME SUMMARY AT END OF TIME STEP       468 IN STRESS PERIOD         2
                    SECONDS     MINUTES      HOURS       DAYS        YEARS
                    -----------------------------------------------------------
   TIME STEP LENGTH  86.400      1.4400     2.40000E-02 1.00000E-03 2.73785E-06
 STRESS PERIOD TIME  40435.      673.92      11.232     0.46800     1.28131E-03
         TOTAL TIME 1.26835E+05  2113.9      35.232      1.4680     4.01916E-03
1
 ------------------------------------------------------------------------------------------------------------
 
 SOLVING FOR TRANSPORT 

          SEQUENTIAL TRANSPORT ITERATION LOOP NUMBER    1
          -----------------------------------------------

 ------------------------------------------------------------------------------------------------------------------------
     1 CALLS TO SPARSE MATRIX SOLVER PACKAGE IN TRANSPORT TIME STEP     468 STRESS PERIOD       2 SPECIES  1

 TOTAL OF       1OUTER ITERATIONS
  MAXIMUM CHANGE FOR EACH ITERATION:
   MAX. CHANGE        NODE  MAX. CHANGE        NODE  MAX. CHANGE        NODE  MAX. CHANGE        NODE  MAX. CHANGE        NODE
 ------------------------------------------------------------------------------------------------------------------------------------
   0.38722    ,       1200
     TRANSPORT SOLUTION COMPLETE FOR COMPONENT SPECIES NUMBER    1
     ------------------------------------------------------------

 TRANSPORT SOLUTION COMPLETE FOR ALL SPECIES, SORTING OUTPUT FOR CONCENTRATIONS AND MASS BALANCE
 ----------------------------------------------------------------------------------------------------
     TRANSPORT OUTPUT FOR COMPONENT SPECIES NUMBER    1
     ------------------------------------------------------------
 -------------------------------------------------------------------------------------
 
 SOLVING FOR HEAD 

 Outer-Iteration  Inner-Iteration  Backtracking  Number of        Incoming       Outgoing      Cutoff     Maximum Head Change      Maximum Head Change
     Number           Count           Flag       Backtracks       Residual       Residual      Residual            Value               Location
        1                             0             0          0.803221E-02     0.803221E-02   -1.00000    
        1               11                                                                                      -0.214864E-04               1360           GWF-node number
        2                             0             0          0.212340E-06     0.212340E-06   -1.00000    
        2                1                                                                                       0.449602E-06               3129           GWF-node number
     2 CALLS TO SPARSE MATRIX SOLVER PACKAGE  IN FLOW TIME STEP     469 STRESS PERIOD       2

 TOTAL OF       2OUTER ITERATIONS
  MAXIMUM CHANGE FOR EACH ITERATION:
   MAX. CHANGE        NODE  MAX. CHANGE        NODE  MAX. CHANGE        NODE  MAX. CHANGE        NODE  MAX. CHANGE        NODE
 ------------------------------------------------------------------------------------------------------------------------------------
  -0.21486E-04,       1360  0.44960E-06,       3129

 NO OUTPUT CONTROL FOR STRESS PERIOD        2   TIME STEP      469



          TIME SUMMARY AT END OF TIME STEP       469 IN STRESS PERIOD         2
                    SECONDS     MINUTES      HOURS       DAYS        YEARS
                    -----------------------------------------------------------
   TIME STEP LENGTH  86.400      1.4400     2.40000E-02 1.00000E-03 2.73785E-06
 STRESS PERIOD TIME  40522.      675.36      11.256     0.46900     1.28405E-03
         TOTAL TIME 1.26922E+05  2115.4      35.256      1.4690     4.02190E-03
1
 ------------------------------------------------------------------------------------------------------------
 
 SOLVING FOR TRANSPORT 

          SEQUENTIAL TRANSPORT ITERATION LOOP NUMBER    1
          -----------------------------------------------

 ------------------------------------------------------------------------------------------------------------------------
     1 CALLS TO SPARSE MATRIX SOLVER PACKAGE IN TRANSPORT TIME STEP     469 STRESS PERIOD       2 SPECIES  1

 TOTAL OF       1OUTER ITERATIONS
  MAXIMUM CHANGE FOR EACH ITERATION:
   MAX. CHANGE        NODE  MAX. CHANGE        NODE  MAX. CHANGE        NODE  MAX. CHANGE        NODE  MAX. CHANGE        NODE
 ------------------------------------------------------------------------------------------------------------------------------------
   0.40055    ,       1280
     TRANSPORT SOLUTION COMPLETE FOR COMPONENT SPECIES NUMBER    1
     ------------------------------------------------------------

 TRANSPORT SOLUTION COMPLETE FOR ALL SPECIES, SORTING OUTPUT FOR CONCENTRATIONS AND MASS BALANCE
 ----------------------------------------------------------------------------------------------------
     TRANSPORT OUTPUT FOR COMPONENT SPECIES NUMBER    1
     ------------------------------------------------------------
 -------------------------------------------------------------------------------------
 
 SOLVING FOR HEAD 

 Outer-Iteration  Inner-Iteration  Backtracking  Number of        Incoming       Outgoing      Cutoff     Maximum Head Change      Maximum Head Change
     Number           Count           Flag       Backtracks       Residual       Residual      Residual            Value               Location
        1                             0             0          0.759514E-02     0.759514E-02   -1.00000    
        1                9                                                                                      -0.207380E-04               1280           GWF-node number
        2                             0             0          0.151464E-05     0.151464E-05   -1.00000    
        2                3                                                                                       0.716732E-06               3054           GWF-node number
     2 CALLS TO SPARSE MATRIX SOLVER PACKAGE  IN FLOW TIME STEP     470 STRESS PERIOD       2

 TOTAL OF       2OUTER ITERATIONS
  MAXIMUM CHANGE FOR EACH ITERATION:
   MAX. CHANGE        NODE  MAX. CHANGE        NODE  MAX. CHANGE        NODE  MAX. CHANGE        NODE  MAX. CHANGE        NODE
 ------------------------------------------------------------------------------------------------------------------------------------
  -0.20738E-04,       1280  0.71673E-06,       3054

 NO OUTPUT CONTROL FOR STRESS PERIOD        2   TIME STEP      470



          TIME SUMMARY AT END OF TIME STEP       470 IN STRESS PERIOD         2
                    SECONDS     MINUTES      HOURS       DAYS        YEARS
                    -----------------------------------------------------------
   TIME STEP LENGTH  86.400      1.4400     2.40000E-02 1.00000E-03 2.73785E-06
 STRESS PERIOD TIME  40608.      676.80      11.280     0.47000     1.28679E-03
         TOTAL TIME 1.27008E+05  2116.8      35.280      1.4700     4.02464E-03
1
 ------------------------------------------------------------------------------------------------------------
 
 SOLVING FOR TRANSPORT 

          SEQUENTIAL TRANSPORT ITERATION LOOP NUMBER    1
          -----------------------------------------------

 ------------------------------------------------------------------------------------------------------------------------
     1 CALLS TO SPARSE MATRIX SOLVER PACKAGE IN TRANSPORT TIME STEP     470 STRESS PERIOD       2 SPECIES  1

 TOTAL OF       1OUTER ITERATIONS
  MAXIMUM CHANGE FOR EACH ITERATION:
   MAX. CHANGE        NODE  MAX. CHANGE        NODE  MAX. CHANGE        NODE  MAX. CHANGE        NODE  MAX. CHANGE        NODE
 ------------------------------------------------------------------------------------------------------------------------------------
   0.35884    ,       1280
     TRANSPORT SOLUTION COMPLETE FOR COMPONENT SPECIES NUMBER    1
     ------------------------------------------------------------

 TRANSPORT SOLUTION COMPLETE FOR ALL SPECIES, SORTING OUTPUT FOR CONCENTRATIONS AND MASS BALANCE
 ----------------------------------------------------------------------------------------------------
     TRANSPORT OUTPUT FOR COMPONENT SPECIES NUMBER    1
     ------------------------------------------------------------
 -------------------------------------------------------------------------------------
 
 SOLVING FOR HEAD 

 Outer-Iteration  Inner-Iteration  Backtracking  Number of        Incoming       Outgoing      Cutoff     Maximum Head Change      Maximum Head Change
     Number           Count           Flag       Backtracks       Residual       Residual      Residual            Value               Location
        1                             0             0          0.832552E-02     0.832552E-02   -1.00000    
        1                9                                                                                      -0.215064E-04               1280           GWF-node number
        2                             0             0          0.119916E-05     0.119916E-05   -1.00000    
        2                1                                                                                      -0.927529E-06               3124           GWF-node number
     2 CALLS TO SPARSE MATRIX SOLVER PACKAGE  IN FLOW TIME STEP     471 STRESS PERIOD       2

 TOTAL OF       2OUTER ITERATIONS
  MAXIMUM CHANGE FOR EACH ITERATION:
   MAX. CHANGE        NODE  MAX. CHANGE        NODE  MAX. CHANGE        NODE  MAX. CHANGE        NODE  MAX. CHANGE        NODE
 ------------------------------------------------------------------------------------------------------------------------------------
  -0.21506E-04,       1280 -0.92753E-06,       3124

 NO OUTPUT CONTROL FOR STRESS PERIOD        2   TIME STEP      471



          TIME SUMMARY AT END OF TIME STEP       471 IN STRESS PERIOD         2
                    SECONDS     MINUTES      HOURS       DAYS        YEARS
                    -----------------------------------------------------------
   TIME STEP LENGTH  86.400      1.4400     2.40000E-02 1.00000E-03 2.73785E-06
 STRESS PERIOD TIME  40694.      678.24      11.304     0.47100     1.28953E-03
         TOTAL TIME 1.27094E+05  2118.2      35.304      1.4710     4.02738E-03
1
 ------------------------------------------------------------------------------------------------------------
 
 SOLVING FOR TRANSPORT 

          SEQUENTIAL TRANSPORT ITERATION LOOP NUMBER    1
          -----------------------------------------------

 ------------------------------------------------------------------------------------------------------------------------
     1 CALLS TO SPARSE MATRIX SOLVER PACKAGE IN TRANSPORT TIME STEP     471 STRESS PERIOD       2 SPECIES  1

 TOTAL OF       1OUTER ITERATIONS
  MAXIMUM CHANGE FOR EACH ITERATION:
   MAX. CHANGE        NODE  MAX. CHANGE        NODE  MAX. CHANGE        NODE  MAX. CHANGE        NODE  MAX. CHANGE        NODE
 ------------------------------------------------------------------------------------------------------------------------------------
   0.29908    ,       1040
     TRANSPORT SOLUTION COMPLETE FOR COMPONENT SPECIES NUMBER    1
     ------------------------------------------------------------

 TRANSPORT SOLUTION COMPLETE FOR ALL SPECIES, SORTING OUTPUT FOR CONCENTRATIONS AND MASS BALANCE
 ----------------------------------------------------------------------------------------------------
     TRANSPORT OUTPUT FOR COMPONENT SPECIES NUMBER    1
     ------------------------------------------------------------
 -------------------------------------------------------------------------------------
 
 SOLVING FOR HEAD 

 Outer-Iteration  Inner-Iteration  Backtracking  Number of        Incoming       Outgoing      Cutoff     Maximum Head Change      Maximum Head Change
     Number           Count           Flag       Backtracks       Residual       Residual      Residual            Value               Location
        1                             0             0          0.612584E-02     0.612584E-02   -1.00000    
        1               11                                                                                      -0.160807E-04               1280           GWF-node number
        2                             0             0          0.306359E-06     0.306359E-06   -1.00000    
        2                1                                                                                       0.229507E-06               1473           GWF-node number
     2 CALLS TO SPARSE MATRIX SOLVER PACKAGE  IN FLOW TIME STEP     472 STRESS PERIOD       2

 TOTAL OF       2OUTER ITERATIONS
  MAXIMUM CHANGE FOR EACH ITERATION:
   MAX. CHANGE        NODE  MAX. CHANGE        NODE  MAX. CHANGE        NODE  MAX. CHANGE        NODE  MAX. CHANGE        NODE
 ------------------------------------------------------------------------------------------------------------------------------------
  -0.16081E-04,       1280  0.22951E-06,       1473

 NO OUTPUT CONTROL FOR STRESS PERIOD        2   TIME STEP      472



          TIME SUMMARY AT END OF TIME STEP       472 IN STRESS PERIOD         2
                    SECONDS     MINUTES      HOURS       DAYS        YEARS
                    -----------------------------------------------------------
   TIME STEP LENGTH  86.400      1.4400     2.40000E-02 1.00000E-03 2.73785E-06
 STRESS PERIOD TIME  40781.      679.68      11.328     0.47200     1.29227E-03
         TOTAL TIME 1.27181E+05  2119.7      35.328      1.4720     4.03012E-03
1
 ------------------------------------------------------------------------------------------------------------
 
 SOLVING FOR TRANSPORT 

          SEQUENTIAL TRANSPORT ITERATION LOOP NUMBER    1
          -----------------------------------------------

 ------------------------------------------------------------------------------------------------------------------------
     1 CALLS TO SPARSE MATRIX SOLVER PACKAGE IN TRANSPORT TIME STEP     472 STRESS PERIOD       2 SPECIES  1

 TOTAL OF       1OUTER ITERATIONS
  MAXIMUM CHANGE FOR EACH ITERATION:
   MAX. CHANGE        NODE  MAX. CHANGE        NODE  MAX. CHANGE        NODE  MAX. CHANGE        NODE  MAX. CHANGE        NODE
 ------------------------------------------------------------------------------------------------------------------------------------
   0.24419    ,        960
     TRANSPORT SOLUTION COMPLETE FOR COMPONENT SPECIES NUMBER    1
     ------------------------------------------------------------

 TRANSPORT SOLUTION COMPLETE FOR ALL SPECIES, SORTING OUTPUT FOR CONCENTRATIONS AND MASS BALANCE
 ----------------------------------------------------------------------------------------------------
     TRANSPORT OUTPUT FOR COMPONENT SPECIES NUMBER    1
     ------------------------------------------------------------
 -------------------------------------------------------------------------------------
 
 SOLVING FOR HEAD 

 Outer-Iteration  Inner-Iteration  Backtracking  Number of        Incoming       Outgoing      Cutoff     Maximum Head Change      Maximum Head Change
     Number           Count           Flag       Backtracks       Residual       Residual      Residual            Value               Location
        1                             0             0          0.367034E-02     0.367034E-02   -1.00000    
        1               11                                                                                       0.152664E-04               1518           GWF-node number
        2                             0             0          0.371328E-06     0.371328E-06   -1.00000    
        2                1                                                                                      -0.435074E-06               2186           GWF-node number
     2 CALLS TO SPARSE MATRIX SOLVER PACKAGE  IN FLOW TIME STEP     473 STRESS PERIOD       2

 TOTAL OF       2OUTER ITERATIONS
  MAXIMUM CHANGE FOR EACH ITERATION:
   MAX. CHANGE        NODE  MAX. CHANGE        NODE  MAX. CHANGE        NODE  MAX. CHANGE        NODE  MAX. CHANGE        NODE
 ------------------------------------------------------------------------------------------------------------------------------------
   0.15266E-04,       1518 -0.43507E-06,       2186

 NO OUTPUT CONTROL FOR STRESS PERIOD        2   TIME STEP      473



          TIME SUMMARY AT END OF TIME STEP       473 IN STRESS PERIOD         2
                    SECONDS     MINUTES      HOURS       DAYS        YEARS
                    -----------------------------------------------------------
   TIME STEP LENGTH  86.400      1.4400     2.40000E-02 1.00000E-03 2.73785E-06
 STRESS PERIOD TIME  40867.      681.12      11.352     0.47300     1.29500E-03
         TOTAL TIME 1.27267E+05  2121.1      35.352      1.4730     4.03285E-03
1
 ------------------------------------------------------------------------------------------------------------
 
 SOLVING FOR TRANSPORT 

          SEQUENTIAL TRANSPORT ITERATION LOOP NUMBER    1
          -----------------------------------------------

 ------------------------------------------------------------------------------------------------------------------------
     1 CALLS TO SPARSE MATRIX SOLVER PACKAGE IN TRANSPORT TIME STEP     473 STRESS PERIOD       2 SPECIES  1

 TOTAL OF       1OUTER ITERATIONS
  MAXIMUM CHANGE FOR EACH ITERATION:
   MAX. CHANGE        NODE  MAX. CHANGE        NODE  MAX. CHANGE        NODE  MAX. CHANGE        NODE  MAX. CHANGE        NODE
 ------------------------------------------------------------------------------------------------------------------------------------
   0.18726    ,        880
     TRANSPORT SOLUTION COMPLETE FOR COMPONENT SPECIES NUMBER    1
     ------------------------------------------------------------

 TRANSPORT SOLUTION COMPLETE FOR ALL SPECIES, SORTING OUTPUT FOR CONCENTRATIONS AND MASS BALANCE
 ----------------------------------------------------------------------------------------------------
     TRANSPORT OUTPUT FOR COMPONENT SPECIES NUMBER    1
     ------------------------------------------------------------
 -------------------------------------------------------------------------------------
 
 SOLVING FOR HEAD 

 Outer-Iteration  Inner-Iteration  Backtracking  Number of        Incoming       Outgoing      Cutoff     Maximum Head Change      Maximum Head Change
     Number           Count           Flag       Backtracks       Residual       Residual      Residual            Value               Location
        1                             0             0          0.313905E-02     0.313905E-02   -1.00000    
        1                8                                                                                       0.178550E-04               1517           GWF-node number
        2                             0             0          0.352271E-05     0.352271E-05   -1.00000    
        2                2                                                                                      -0.112456E-05               2401           GWF-node number
     2 CALLS TO SPARSE MATRIX SOLVER PACKAGE  IN FLOW TIME STEP     474 STRESS PERIOD       2

 TOTAL OF       2OUTER ITERATIONS
  MAXIMUM CHANGE FOR EACH ITERATION:
   MAX. CHANGE        NODE  MAX. CHANGE        NODE  MAX. CHANGE        NODE  MAX. CHANGE        NODE  MAX. CHANGE        NODE
 ------------------------------------------------------------------------------------------------------------------------------------
   0.17855E-04,       1517 -0.11246E-05,       2401

 NO OUTPUT CONTROL FOR STRESS PERIOD        2   TIME STEP      474



          TIME SUMMARY AT END OF TIME STEP       474 IN STRESS PERIOD         2
                    SECONDS     MINUTES      HOURS       DAYS        YEARS
                    -----------------------------------------------------------
   TIME STEP LENGTH  86.400      1.4400     2.40000E-02 1.00000E-03 2.73785E-06
 STRESS PERIOD TIME  40954.      682.56      11.376     0.47400     1.29774E-03
         TOTAL TIME 1.27354E+05  2122.6      35.376      1.4740     4.03559E-03
1
 ------------------------------------------------------------------------------------------------------------
 
 SOLVING FOR TRANSPORT 

          SEQUENTIAL TRANSPORT ITERATION LOOP NUMBER    1
          -----------------------------------------------

 ------------------------------------------------------------------------------------------------------------------------
     1 CALLS TO SPARSE MATRIX SOLVER PACKAGE IN TRANSPORT TIME STEP     474 STRESS PERIOD       2 SPECIES  1

 TOTAL OF       1OUTER ITERATIONS
  MAXIMUM CHANGE FOR EACH ITERATION:
   MAX. CHANGE        NODE  MAX. CHANGE        NODE  MAX. CHANGE        NODE  MAX. CHANGE        NODE  MAX. CHANGE        NODE
 ------------------------------------------------------------------------------------------------------------------------------------
  -0.14506    ,       1520
     TRANSPORT SOLUTION COMPLETE FOR COMPONENT SPECIES NUMBER    1
     ------------------------------------------------------------

 TRANSPORT SOLUTION COMPLETE FOR ALL SPECIES, SORTING OUTPUT FOR CONCENTRATIONS AND MASS BALANCE
 ----------------------------------------------------------------------------------------------------
     TRANSPORT OUTPUT FOR COMPONENT SPECIES NUMBER    1
     ------------------------------------------------------------
 -------------------------------------------------------------------------------------
 
 SOLVING FOR HEAD 

 Outer-Iteration  Inner-Iteration  Backtracking  Number of        Incoming       Outgoing      Cutoff     Maximum Head Change      Maximum Head Change
     Number           Count           Flag       Backtracks       Residual       Residual      Residual            Value               Location
        1                             0             0          0.345239E-02     0.345239E-02   -1.00000    
        1               11                                                                                       0.222672E-04               1438           GWF-node number
        2                             0             0          0.322814E-06     0.322814E-06   -1.00000    
        2                1                                                                                      -0.385882E-06               2038           GWF-node number
     2 CALLS TO SPARSE MATRIX SOLVER PACKAGE  IN FLOW TIME STEP     475 STRESS PERIOD       2

 TOTAL OF       2OUTER ITERATIONS
  MAXIMUM CHANGE FOR EACH ITERATION:
   MAX. CHANGE        NODE  MAX. CHANGE        NODE  MAX. CHANGE        NODE  MAX. CHANGE        NODE  MAX. CHANGE        NODE
 ------------------------------------------------------------------------------------------------------------------------------------
   0.22267E-04,       1438 -0.38588E-06,       2038

 NO OUTPUT CONTROL FOR STRESS PERIOD        2   TIME STEP      475



          TIME SUMMARY AT END OF TIME STEP       475 IN STRESS PERIOD         2
                    SECONDS     MINUTES      HOURS       DAYS        YEARS
                    -----------------------------------------------------------
   TIME STEP LENGTH  86.400      1.4400     2.40000E-02 1.00000E-03 2.73785E-06
 STRESS PERIOD TIME  41040.      684.00      11.400     0.47500     1.30048E-03
         TOTAL TIME 1.27440E+05  2124.0      35.400      1.4750     4.03833E-03
1
 ------------------------------------------------------------------------------------------------------------
 
 SOLVING FOR TRANSPORT 

          SEQUENTIAL TRANSPORT ITERATION LOOP NUMBER    1
          -----------------------------------------------

 ------------------------------------------------------------------------------------------------------------------------
     1 CALLS TO SPARSE MATRIX SOLVER PACKAGE IN TRANSPORT TIME STEP     475 STRESS PERIOD       2 SPECIES  1

 TOTAL OF       1OUTER ITERATIONS
  MAXIMUM CHANGE FOR EACH ITERATION:
   MAX. CHANGE        NODE  MAX. CHANGE        NODE  MAX. CHANGE        NODE  MAX. CHANGE        NODE  MAX. CHANGE        NODE
 ------------------------------------------------------------------------------------------------------------------------------------
  -0.18691    ,       1520
     TRANSPORT SOLUTION COMPLETE FOR COMPONENT SPECIES NUMBER    1
     ------------------------------------------------------------

 TRANSPORT SOLUTION COMPLETE FOR ALL SPECIES, SORTING OUTPUT FOR CONCENTRATIONS AND MASS BALANCE
 ----------------------------------------------------------------------------------------------------
     TRANSPORT OUTPUT FOR COMPONENT SPECIES NUMBER    1
     ------------------------------------------------------------
 -------------------------------------------------------------------------------------
 
 SOLVING FOR HEAD 

 Outer-Iteration  Inner-Iteration  Backtracking  Number of        Incoming       Outgoing      Cutoff     Maximum Head Change      Maximum Head Change
     Number           Count           Flag       Backtracks       Residual       Residual      Residual            Value               Location
        1                             0             0          0.436499E-02     0.436499E-02   -1.00000    
        1                8                                                                                       0.178062E-04               1438           GWF-node number
        2                             0             0          0.689829E-05     0.689829E-05   -1.00000    
        2                3                                                                                      -0.852952E-06               1588           GWF-node number
     2 CALLS TO SPARSE MATRIX SOLVER PACKAGE  IN FLOW TIME STEP     476 STRESS PERIOD       2

 TOTAL OF       2OUTER ITERATIONS
  MAXIMUM CHANGE FOR EACH ITERATION:
   MAX. CHANGE        NODE  MAX. CHANGE        NODE  MAX. CHANGE        NODE  MAX. CHANGE        NODE  MAX. CHANGE        NODE
 ------------------------------------------------------------------------------------------------------------------------------------
   0.17806E-04,       1438 -0.85295E-06,       1588

 NO OUTPUT CONTROL FOR STRESS PERIOD        2   TIME STEP      476



          TIME SUMMARY AT END OF TIME STEP       476 IN STRESS PERIOD         2
                    SECONDS     MINUTES      HOURS       DAYS        YEARS
                    -----------------------------------------------------------
   TIME STEP LENGTH  86.400      1.4400     2.40000E-02 1.00000E-03 2.73785E-06
 STRESS PERIOD TIME  41126.      685.44      11.424     0.47600     1.30322E-03
         TOTAL TIME 1.27526E+05  2125.4      35.424      1.4760     4.04107E-03
1
 ------------------------------------------------------------------------------------------------------------
 
 SOLVING FOR TRANSPORT 

          SEQUENTIAL TRANSPORT ITERATION LOOP NUMBER    1
          -----------------------------------------------

 ------------------------------------------------------------------------------------------------------------------------
     1 CALLS TO SPARSE MATRIX SOLVER PACKAGE IN TRANSPORT TIME STEP     476 STRESS PERIOD       2 SPECIES  1

 TOTAL OF       1OUTER ITERATIONS
  MAXIMUM CHANGE FOR EACH ITERATION:
   MAX. CHANGE        NODE  MAX. CHANGE        NODE  MAX. CHANGE        NODE  MAX. CHANGE        NODE  MAX. CHANGE        NODE
 ------------------------------------------------------------------------------------------------------------------------------------
  -0.22757    ,       1520
     TRANSPORT SOLUTION COMPLETE FOR COMPONENT SPECIES NUMBER    1
     ------------------------------------------------------------

 TRANSPORT SOLUTION COMPLETE FOR ALL SPECIES, SORTING OUTPUT FOR CONCENTRATIONS AND MASS BALANCE
 ----------------------------------------------------------------------------------------------------
     TRANSPORT OUTPUT FOR COMPONENT SPECIES NUMBER    1
     ------------------------------------------------------------
 -------------------------------------------------------------------------------------
 
 SOLVING FOR HEAD 

 Outer-Iteration  Inner-Iteration  Backtracking  Number of        Incoming       Outgoing      Cutoff     Maximum Head Change      Maximum Head Change
     Number           Count           Flag       Backtracks       Residual       Residual      Residual            Value               Location
        1                             0             0          0.566839E-02     0.566839E-02   -1.00000    
        1                9                                                                                       0.224201E-04               1438           GWF-node number
        2                             0             0          0.119662E-05     0.119662E-05   -1.00000    
        2                3                                                                                       0.214203E-06               1519           GWF-node number
     2 CALLS TO SPARSE MATRIX SOLVER PACKAGE  IN FLOW TIME STEP     477 STRESS PERIOD       2

 TOTAL OF       2OUTER ITERATIONS
  MAXIMUM CHANGE FOR EACH ITERATION:
   MAX. CHANGE        NODE  MAX. CHANGE        NODE  MAX. CHANGE        NODE  MAX. CHANGE        NODE  MAX. CHANGE        NODE
 ------------------------------------------------------------------------------------------------------------------------------------
   0.22420E-04,       1438  0.21420E-06,       1519

 NO OUTPUT CONTROL FOR STRESS PERIOD        2   TIME STEP      477



          TIME SUMMARY AT END OF TIME STEP       477 IN STRESS PERIOD         2
                    SECONDS     MINUTES      HOURS       DAYS        YEARS
                    -----------------------------------------------------------
   TIME STEP LENGTH  86.400      1.4400     2.40000E-02 1.00000E-03 2.73785E-06
 STRESS PERIOD TIME  41213.      686.88      11.448     0.47700     1.30595E-03
         TOTAL TIME 1.27613E+05  2126.9      35.448      1.4770     4.04381E-03
1
 ------------------------------------------------------------------------------------------------------------
 
 SOLVING FOR TRANSPORT 

          SEQUENTIAL TRANSPORT ITERATION LOOP NUMBER    1
          -----------------------------------------------

 ------------------------------------------------------------------------------------------------------------------------
     1 CALLS TO SPARSE MATRIX SOLVER PACKAGE IN TRANSPORT TIME STEP     477 STRESS PERIOD       2 SPECIES  1

 TOTAL OF       1OUTER ITERATIONS
  MAXIMUM CHANGE FOR EACH ITERATION:
   MAX. CHANGE        NODE  MAX. CHANGE        NODE  MAX. CHANGE        NODE  MAX. CHANGE        NODE  MAX. CHANGE        NODE
 ------------------------------------------------------------------------------------------------------------------------------------
  -0.27890    ,       1440
     TRANSPORT SOLUTION COMPLETE FOR COMPONENT SPECIES NUMBER    1
     ------------------------------------------------------------

 TRANSPORT SOLUTION COMPLETE FOR ALL SPECIES, SORTING OUTPUT FOR CONCENTRATIONS AND MASS BALANCE
 ----------------------------------------------------------------------------------------------------
     TRANSPORT OUTPUT FOR COMPONENT SPECIES NUMBER    1
     ------------------------------------------------------------
 -------------------------------------------------------------------------------------
 
 SOLVING FOR HEAD 

 Outer-Iteration  Inner-Iteration  Backtracking  Number of        Incoming       Outgoing      Cutoff     Maximum Head Change      Maximum Head Change
     Number           Count           Flag       Backtracks       Residual       Residual      Residual            Value               Location
        1                             0             0          0.619618E-02     0.619618E-02   -1.00000    
        1               10                                                                                       0.215774E-04               1439           GWF-node number
        2                             0             0          0.838645E-06     0.838645E-06   -1.00000    
        2                1                                                                                      -0.428923E-06               1637           GWF-node number
     2 CALLS TO SPARSE MATRIX SOLVER PACKAGE  IN FLOW TIME STEP     478 STRESS PERIOD       2

 TOTAL OF       2OUTER ITERATIONS
  MAXIMUM CHANGE FOR EACH ITERATION:
   MAX. CHANGE        NODE  MAX. CHANGE        NODE  MAX. CHANGE        NODE  MAX. CHANGE        NODE  MAX. CHANGE        NODE
 ------------------------------------------------------------------------------------------------------------------------------------
   0.21577E-04,       1439 -0.42892E-06,       1637

 NO OUTPUT CONTROL FOR STRESS PERIOD        2   TIME STEP      478



          TIME SUMMARY AT END OF TIME STEP       478 IN STRESS PERIOD         2
                    SECONDS     MINUTES      HOURS       DAYS        YEARS
                    -----------------------------------------------------------
   TIME STEP LENGTH  86.400      1.4400     2.40000E-02 1.00000E-03 2.73785E-06
 STRESS PERIOD TIME  41299.      688.32      11.472     0.47800     1.30869E-03
         TOTAL TIME 1.27699E+05  2128.3      35.472      1.4780     4.04654E-03
1
 ------------------------------------------------------------------------------------------------------------
 
 SOLVING FOR TRANSPORT 

          SEQUENTIAL TRANSPORT ITERATION LOOP NUMBER    1
          -----------------------------------------------

 ------------------------------------------------------------------------------------------------------------------------
     1 CALLS TO SPARSE MATRIX SOLVER PACKAGE IN TRANSPORT TIME STEP     478 STRESS PERIOD       2 SPECIES  1

 TOTAL OF       1OUTER ITERATIONS
  MAXIMUM CHANGE FOR EACH ITERATION:
   MAX. CHANGE        NODE  MAX. CHANGE        NODE  MAX. CHANGE        NODE  MAX. CHANGE        NODE  MAX. CHANGE        NODE
 ------------------------------------------------------------------------------------------------------------------------------------
  -0.30889    ,       1440
     TRANSPORT SOLUTION COMPLETE FOR COMPONENT SPECIES NUMBER    1
     ------------------------------------------------------------

 TRANSPORT SOLUTION COMPLETE FOR ALL SPECIES, SORTING OUTPUT FOR CONCENTRATIONS AND MASS BALANCE
 ----------------------------------------------------------------------------------------------------
     TRANSPORT OUTPUT FOR COMPONENT SPECIES NUMBER    1
     ------------------------------------------------------------
 -------------------------------------------------------------------------------------
 
 SOLVING FOR HEAD 

 Outer-Iteration  Inner-Iteration  Backtracking  Number of        Incoming       Outgoing      Cutoff     Maximum Head Change      Maximum Head Change
     Number           Count           Flag       Backtracks       Residual       Residual      Residual            Value               Location
        1                             0             0          0.896350E-02     0.896350E-02   -1.00000    
        1                8                                                                                       0.248087E-04               1359           GWF-node number
        2                             0             0          0.535663E-05     0.535663E-05   -1.00000    
        2                1                                                                                      -0.711206E-06               1413           GWF-node number
     2 CALLS TO SPARSE MATRIX SOLVER PACKAGE  IN FLOW TIME STEP     479 STRESS PERIOD       2

 TOTAL OF       2OUTER ITERATIONS
  MAXIMUM CHANGE FOR EACH ITERATION:
   MAX. CHANGE        NODE  MAX. CHANGE        NODE  MAX. CHANGE        NODE  MAX. CHANGE        NODE  MAX. CHANGE        NODE
 ------------------------------------------------------------------------------------------------------------------------------------
   0.24809E-04,       1359 -0.71121E-06,       1413

 NO OUTPUT CONTROL FOR STRESS PERIOD        2   TIME STEP      479



          TIME SUMMARY AT END OF TIME STEP       479 IN STRESS PERIOD         2
                    SECONDS     MINUTES      HOURS       DAYS        YEARS
                    -----------------------------------------------------------
   TIME STEP LENGTH  86.400      1.4400     2.40000E-02 1.00000E-03 2.73785E-06
 STRESS PERIOD TIME  41386.      689.76      11.496     0.47900     1.31143E-03
         TOTAL TIME 1.27786E+05  2129.8      35.496      1.4790     4.04928E-03
1
 ------------------------------------------------------------------------------------------------------------
 
 SOLVING FOR TRANSPORT 

          SEQUENTIAL TRANSPORT ITERATION LOOP NUMBER    1
          -----------------------------------------------

 ------------------------------------------------------------------------------------------------------------------------
     1 CALLS TO SPARSE MATRIX SOLVER PACKAGE IN TRANSPORT TIME STEP     479 STRESS PERIOD       2 SPECIES  1

 TOTAL OF       1OUTER ITERATIONS
  MAXIMUM CHANGE FOR EACH ITERATION:
   MAX. CHANGE        NODE  MAX. CHANGE        NODE  MAX. CHANGE        NODE  MAX. CHANGE        NODE  MAX. CHANGE        NODE
 ------------------------------------------------------------------------------------------------------------------------------------
  -0.30038    ,       1360
     TRANSPORT SOLUTION COMPLETE FOR COMPONENT SPECIES NUMBER    1
     ------------------------------------------------------------

 TRANSPORT SOLUTION COMPLETE FOR ALL SPECIES, SORTING OUTPUT FOR CONCENTRATIONS AND MASS BALANCE
 ----------------------------------------------------------------------------------------------------
     TRANSPORT OUTPUT FOR COMPONENT SPECIES NUMBER    1
     ------------------------------------------------------------
 -------------------------------------------------------------------------------------
 
 SOLVING FOR HEAD 

 Outer-Iteration  Inner-Iteration  Backtracking  Number of        Incoming       Outgoing      Cutoff     Maximum Head Change      Maximum Head Change
     Number           Count           Flag       Backtracks       Residual       Residual      Residual            Value               Location
        1                             0             0          0.884740E-02     0.884740E-02   -1.00000    
        1               11                                                                                       0.316240E-04               1359           GWF-node number
        2                             0             0          0.113894E-05     0.113894E-05   -1.00000    
        2                2                                                                                      -0.254577E-05               2162           GWF-node number
     2 CALLS TO SPARSE MATRIX SOLVER PACKAGE  IN FLOW TIME STEP     480 STRESS PERIOD       2

 TOTAL OF       2OUTER ITERATIONS
  MAXIMUM CHANGE FOR EACH ITERATION:
   MAX. CHANGE        NODE  MAX. CHANGE        NODE  MAX. CHANGE        NODE  MAX. CHANGE        NODE  MAX. CHANGE        NODE
 ------------------------------------------------------------------------------------------------------------------------------------
   0.31624E-04,       1359 -0.25458E-05,       2162

 NO OUTPUT CONTROL FOR STRESS PERIOD        2   TIME STEP      480



          TIME SUMMARY AT END OF TIME STEP       480 IN STRESS PERIOD         2
                    SECONDS     MINUTES      HOURS       DAYS        YEARS
                    -----------------------------------------------------------
   TIME STEP LENGTH  86.400      1.4400     2.40000E-02 1.00000E-03 2.73785E-06
 STRESS PERIOD TIME  41472.      691.20      11.520     0.48000     1.31417E-03
         TOTAL TIME 1.27872E+05  2131.2      35.520      1.4800     4.05202E-03
1
 ------------------------------------------------------------------------------------------------------------
 
 SOLVING FOR TRANSPORT 

          SEQUENTIAL TRANSPORT ITERATION LOOP NUMBER    1
          -----------------------------------------------

 ------------------------------------------------------------------------------------------------------------------------
     1 CALLS TO SPARSE MATRIX SOLVER PACKAGE IN TRANSPORT TIME STEP     480 STRESS PERIOD       2 SPECIES  1

 TOTAL OF       1OUTER ITERATIONS
  MAXIMUM CHANGE FOR EACH ITERATION:
   MAX. CHANGE        NODE  MAX. CHANGE        NODE  MAX. CHANGE        NODE  MAX. CHANGE        NODE  MAX. CHANGE        NODE
 ------------------------------------------------------------------------------------------------------------------------------------
  -0.42229    ,       1360
     TRANSPORT SOLUTION COMPLETE FOR COMPONENT SPECIES NUMBER    1
     ------------------------------------------------------------

 TRANSPORT SOLUTION COMPLETE FOR ALL SPECIES, SORTING OUTPUT FOR CONCENTRATIONS AND MASS BALANCE
 ----------------------------------------------------------------------------------------------------
     TRANSPORT OUTPUT FOR COMPONENT SPECIES NUMBER    1
     ------------------------------------------------------------
 -------------------------------------------------------------------------------------
 
 SOLVING FOR HEAD 

 Outer-Iteration  Inner-Iteration  Backtracking  Number of        Incoming       Outgoing      Cutoff     Maximum Head Change      Maximum Head Change
     Number           Count           Flag       Backtracks       Residual       Residual      Residual            Value               Location
        1                             0             0          0.200424E-01     0.200424E-01   -1.00000    
        1               11                                                                                       0.362964E-04               1360           GWF-node number
        2                             0             0          0.288689E-06     0.288689E-06   -1.00000    
        2                2                                                                                      -0.161596E-05               3068           GWF-node number
     2 CALLS TO SPARSE MATRIX SOLVER PACKAGE  IN FLOW TIME STEP     481 STRESS PERIOD       2

 TOTAL OF       2OUTER ITERATIONS
  MAXIMUM CHANGE FOR EACH ITERATION:
   MAX. CHANGE        NODE  MAX. CHANGE        NODE  MAX. CHANGE        NODE  MAX. CHANGE        NODE  MAX. CHANGE        NODE
 ------------------------------------------------------------------------------------------------------------------------------------
   0.36296E-04,       1360 -0.16160E-05,       3068

 NO OUTPUT CONTROL FOR STRESS PERIOD        2   TIME STEP      481



          TIME SUMMARY AT END OF TIME STEP       481 IN STRESS PERIOD         2
                    SECONDS     MINUTES      HOURS       DAYS        YEARS
                    -----------------------------------------------------------
   TIME STEP LENGTH  86.400      1.4400     2.40000E-02 1.00000E-03 2.73785E-06
 STRESS PERIOD TIME  41558.      692.64      11.544     0.48100     1.31691E-03
         TOTAL TIME 1.27958E+05  2132.6      35.544      1.4810     4.05476E-03
1
 ------------------------------------------------------------------------------------------------------------
 
 SOLVING FOR TRANSPORT 

          SEQUENTIAL TRANSPORT ITERATION LOOP NUMBER    1
          -----------------------------------------------

 ------------------------------------------------------------------------------------------------------------------------
     1 CALLS TO SPARSE MATRIX SOLVER PACKAGE IN TRANSPORT TIME STEP     481 STRESS PERIOD       2 SPECIES  1

 TOTAL OF       1OUTER ITERATIONS
  MAXIMUM CHANGE FOR EACH ITERATION:
   MAX. CHANGE        NODE  MAX. CHANGE        NODE  MAX. CHANGE        NODE  MAX. CHANGE        NODE  MAX. CHANGE        NODE
 ------------------------------------------------------------------------------------------------------------------------------------
  -0.33732    ,       1360
     TRANSPORT SOLUTION COMPLETE FOR COMPONENT SPECIES NUMBER    1
     ------------------------------------------------------------

 TRANSPORT SOLUTION COMPLETE FOR ALL SPECIES, SORTING OUTPUT FOR CONCENTRATIONS AND MASS BALANCE
 ----------------------------------------------------------------------------------------------------
     TRANSPORT OUTPUT FOR COMPONENT SPECIES NUMBER    1
     ------------------------------------------------------------
 -------------------------------------------------------------------------------------
 
 SOLVING FOR HEAD 

 Outer-Iteration  Inner-Iteration  Backtracking  Number of        Incoming       Outgoing      Cutoff     Maximum Head Change      Maximum Head Change
     Number           Count           Flag       Backtracks       Residual       Residual      Residual            Value               Location
        1                             0             0          0.120985E-01     0.120985E-01   -1.00000    
        1                9                                                                                       0.260073E-04               1360           GWF-node number
        2                             0             0          0.266619E-05     0.266619E-05   -1.00000    
        2                2                                                                                      -0.172665E-05               1638           GWF-node number
     2 CALLS TO SPARSE MATRIX SOLVER PACKAGE  IN FLOW TIME STEP     482 STRESS PERIOD       2

 TOTAL OF       2OUTER ITERATIONS
  MAXIMUM CHANGE FOR EACH ITERATION:
   MAX. CHANGE        NODE  MAX. CHANGE        NODE  MAX. CHANGE        NODE  MAX. CHANGE        NODE  MAX. CHANGE        NODE
 ------------------------------------------------------------------------------------------------------------------------------------
   0.26007E-04,       1360 -0.17267E-05,       1638

 NO OUTPUT CONTROL FOR STRESS PERIOD        2   TIME STEP      482



          TIME SUMMARY AT END OF TIME STEP       482 IN STRESS PERIOD         2
                    SECONDS     MINUTES      HOURS       DAYS        YEARS
                    -----------------------------------------------------------
   TIME STEP LENGTH  86.400      1.4400     2.40000E-02 1.00000E-03 2.73785E-06
 STRESS PERIOD TIME  41645.      694.08      11.568     0.48200     1.31964E-03
         TOTAL TIME 1.28045E+05  2134.1      35.568      1.4820     4.05749E-03
1
 ------------------------------------------------------------------------------------------------------------
 
 SOLVING FOR TRANSPORT 

          SEQUENTIAL TRANSPORT ITERATION LOOP NUMBER    1
          -----------------------------------------------

 ------------------------------------------------------------------------------------------------------------------------
     1 CALLS TO SPARSE MATRIX SOLVER PACKAGE IN TRANSPORT TIME STEP     482 STRESS PERIOD       2 SPECIES  1

 TOTAL OF       1OUTER ITERATIONS
  MAXIMUM CHANGE FOR EACH ITERATION:
   MAX. CHANGE        NODE  MAX. CHANGE        NODE  MAX. CHANGE        NODE  MAX. CHANGE        NODE  MAX. CHANGE        NODE
 ------------------------------------------------------------------------------------------------------------------------------------
  -0.31799    ,       1280
     TRANSPORT SOLUTION COMPLETE FOR COMPONENT SPECIES NUMBER    1
     ------------------------------------------------------------

 TRANSPORT SOLUTION COMPLETE FOR ALL SPECIES, SORTING OUTPUT FOR CONCENTRATIONS AND MASS BALANCE
 ----------------------------------------------------------------------------------------------------
     TRANSPORT OUTPUT FOR COMPONENT SPECIES NUMBER    1
     ------------------------------------------------------------
 -------------------------------------------------------------------------------------
 
 SOLVING FOR HEAD 

 Outer-Iteration  Inner-Iteration  Backtracking  Number of        Incoming       Outgoing      Cutoff     Maximum Head Change      Maximum Head Change
     Number           Count           Flag       Backtracks       Residual       Residual      Residual            Value               Location
        1                             0             0          0.919648E-02     0.919648E-02   -1.00000    
        1                9                                                                                       0.250295E-04               1279           GWF-node number
        2                             0             0          0.125757E-05     0.125757E-05   -1.00000    
        2                2                                                                                       0.148712E-05               2978           GWF-node number
     2 CALLS TO SPARSE MATRIX SOLVER PACKAGE  IN FLOW TIME STEP     483 STRESS PERIOD       2

 TOTAL OF       2OUTER ITERATIONS
  MAXIMUM CHANGE FOR EACH ITERATION:
   MAX. CHANGE        NODE  MAX. CHANGE        NODE  MAX. CHANGE        NODE  MAX. CHANGE        NODE  MAX. CHANGE        NODE
 ------------------------------------------------------------------------------------------------------------------------------------
   0.25030E-04,       1279  0.14871E-05,       2978

 NO OUTPUT CONTROL FOR STRESS PERIOD        2   TIME STEP      483



          TIME SUMMARY AT END OF TIME STEP       483 IN STRESS PERIOD         2
                    SECONDS     MINUTES      HOURS       DAYS        YEARS
                    -----------------------------------------------------------
   TIME STEP LENGTH  86.400      1.4400     2.40000E-02 1.00000E-03 2.73785E-06
 STRESS PERIOD TIME  41731.      695.52      11.592     0.48300     1.32238E-03
         TOTAL TIME 1.28131E+05  2135.5      35.592      1.4830     4.06023E-03
1
 ------------------------------------------------------------------------------------------------------------
 
 SOLVING FOR TRANSPORT 

          SEQUENTIAL TRANSPORT ITERATION LOOP NUMBER    1
          -----------------------------------------------

 ------------------------------------------------------------------------------------------------------------------------
     1 CALLS TO SPARSE MATRIX SOLVER PACKAGE IN TRANSPORT TIME STEP     483 STRESS PERIOD       2 SPECIES  1

 TOTAL OF       1OUTER ITERATIONS
  MAXIMUM CHANGE FOR EACH ITERATION:
   MAX. CHANGE        NODE  MAX. CHANGE        NODE  MAX. CHANGE        NODE  MAX. CHANGE        NODE  MAX. CHANGE        NODE
 ------------------------------------------------------------------------------------------------------------------------------------
  -0.42460    ,       1280
     TRANSPORT SOLUTION COMPLETE FOR COMPONENT SPECIES NUMBER    1
     ------------------------------------------------------------

 TRANSPORT SOLUTION COMPLETE FOR ALL SPECIES, SORTING OUTPUT FOR CONCENTRATIONS AND MASS BALANCE
 ----------------------------------------------------------------------------------------------------
     TRANSPORT OUTPUT FOR COMPONENT SPECIES NUMBER    1
     ------------------------------------------------------------
 -------------------------------------------------------------------------------------
 
 SOLVING FOR HEAD 

 Outer-Iteration  Inner-Iteration  Backtracking  Number of        Incoming       Outgoing      Cutoff     Maximum Head Change      Maximum Head Change
     Number           Count           Flag       Backtracks       Residual       Residual      Residual            Value               Location
        1                             0             0          0.240141E-01     0.240141E-01   -1.00000    
        1               11                                                                                       0.363885E-04               1280           GWF-node number
        2                             0             0          0.391031E-06     0.391031E-06   -1.00000    
        2                1                                                                                      -0.510096E-06               1248           GWF-node number
     2 CALLS TO SPARSE MATRIX SOLVER PACKAGE  IN FLOW TIME STEP     484 STRESS PERIOD       2

 TOTAL OF       2OUTER ITERATIONS
  MAXIMUM CHANGE FOR EACH ITERATION:
   MAX. CHANGE        NODE  MAX. CHANGE        NODE  MAX. CHANGE        NODE  MAX. CHANGE        NODE  MAX. CHANGE        NODE
 ------------------------------------------------------------------------------------------------------------------------------------
   0.36388E-04,       1280 -0.51010E-06,       1248

 NO OUTPUT CONTROL FOR STRESS PERIOD        2   TIME STEP      484



          TIME SUMMARY AT END OF TIME STEP       484 IN STRESS PERIOD         2
                    SECONDS     MINUTES      HOURS       DAYS        YEARS
                    -----------------------------------------------------------
   TIME STEP LENGTH  86.400      1.4400     2.40000E-02 1.00000E-03 2.73785E-06
 STRESS PERIOD TIME  41818.      696.96      11.616     0.48400     1.32512E-03
         TOTAL TIME 1.28218E+05  2137.0      35.616      1.4840     4.06297E-03
1
 ------------------------------------------------------------------------------------------------------------
 
 SOLVING FOR TRANSPORT 

          SEQUENTIAL TRANSPORT ITERATION LOOP NUMBER    1
          -----------------------------------------------

 ------------------------------------------------------------------------------------------------------------------------
     1 CALLS TO SPARSE MATRIX SOLVER PACKAGE IN TRANSPORT TIME STEP     484 STRESS PERIOD       2 SPECIES  1

 TOTAL OF       1OUTER ITERATIONS
  MAXIMUM CHANGE FOR EACH ITERATION:
   MAX. CHANGE        NODE  MAX. CHANGE        NODE  MAX. CHANGE        NODE  MAX. CHANGE        NODE  MAX. CHANGE        NODE
 ------------------------------------------------------------------------------------------------------------------------------------
  -0.56165    ,       1280
     TRANSPORT SOLUTION COMPLETE FOR COMPONENT SPECIES NUMBER    1
     ------------------------------------------------------------

 TRANSPORT SOLUTION COMPLETE FOR ALL SPECIES, SORTING OUTPUT FOR CONCENTRATIONS AND MASS BALANCE
 ----------------------------------------------------------------------------------------------------
     TRANSPORT OUTPUT FOR COMPONENT SPECIES NUMBER    1
     ------------------------------------------------------------
 -------------------------------------------------------------------------------------
 
 SOLVING FOR HEAD 

 Outer-Iteration  Inner-Iteration  Backtracking  Number of        Incoming       Outgoing      Cutoff     Maximum Head Change      Maximum Head Change
     Number           Count           Flag       Backtracks       Residual       Residual      Residual            Value               Location
        1                             0             0          0.581879E-01     0.581879E-01   -1.00000    
        1               10                                                                                       0.516155E-04               1280           GWF-node number
        2                             0             0          0.240714E-05     0.240714E-05   -1.00000    
        2                1                                                                                       0.943465E-06               1223           GWF-node number
     2 CALLS TO SPARSE MATRIX SOLVER PACKAGE  IN FLOW TIME STEP     485 STRESS PERIOD       2

 TOTAL OF       2OUTER ITERATIONS
  MAXIMUM CHANGE FOR EACH ITERATION:
   MAX. CHANGE        NODE  MAX. CHANGE        NODE  MAX. CHANGE        NODE  MAX. CHANGE        NODE  MAX. CHANGE        NODE
 ------------------------------------------------------------------------------------------------------------------------------------
   0.51616E-04,       1280  0.94346E-06,       1223

 NO OUTPUT CONTROL FOR STRESS PERIOD        2   TIME STEP      485



          TIME SUMMARY AT END OF TIME STEP       485 IN STRESS PERIOD         2
                    SECONDS     MINUTES      HOURS       DAYS        YEARS
                    -----------------------------------------------------------
   TIME STEP LENGTH  86.400      1.4400     2.40000E-02 1.00000E-03 2.73785E-06
 STRESS PERIOD TIME  41904.      698.40      11.640     0.48500     1.32786E-03
         TOTAL TIME 1.28304E+05  2138.4      35.640      1.4850     4.06571E-03
1
 ------------------------------------------------------------------------------------------------------------
 
 SOLVING FOR TRANSPORT 

          SEQUENTIAL TRANSPORT ITERATION LOOP NUMBER    1
          -----------------------------------------------

 ------------------------------------------------------------------------------------------------------------------------
     1 CALLS TO SPARSE MATRIX SOLVER PACKAGE IN TRANSPORT TIME STEP     485 STRESS PERIOD       2 SPECIES  1

 TOTAL OF       1OUTER ITERATIONS
  MAXIMUM CHANGE FOR EACH ITERATION:
   MAX. CHANGE        NODE  MAX. CHANGE        NODE  MAX. CHANGE        NODE  MAX. CHANGE        NODE  MAX. CHANGE        NODE
 ------------------------------------------------------------------------------------------------------------------------------------
  -0.43100    ,       1200
     TRANSPORT SOLUTION COMPLETE FOR COMPONENT SPECIES NUMBER    1
     ------------------------------------------------------------

 TRANSPORT SOLUTION COMPLETE FOR ALL SPECIES, SORTING OUTPUT FOR CONCENTRATIONS AND MASS BALANCE
 ----------------------------------------------------------------------------------------------------
     TRANSPORT OUTPUT FOR COMPONENT SPECIES NUMBER    1
     ------------------------------------------------------------
 -------------------------------------------------------------------------------------
 
 SOLVING FOR HEAD 

 Outer-Iteration  Inner-Iteration  Backtracking  Number of        Incoming       Outgoing      Cutoff     Maximum Head Change      Maximum Head Change
     Number           Count           Flag       Backtracks       Residual       Residual      Residual            Value               Location
        1                             0             0          0.188164E-01     0.188164E-01   -1.00000    
        1                7                                                                                       0.293726E-04               1200           GWF-node number
        2                             0             0          0.183186E-04     0.183186E-04   -1.00000    
        2                4                                                                                      -0.189964E-05                184           GWF-node number
     2 CALLS TO SPARSE MATRIX SOLVER PACKAGE  IN FLOW TIME STEP     486 STRESS PERIOD       2

 TOTAL OF       2OUTER ITERATIONS
  MAXIMUM CHANGE FOR EACH ITERATION:
   MAX. CHANGE        NODE  MAX. CHANGE        NODE  MAX. CHANGE        NODE  MAX. CHANGE        NODE  MAX. CHANGE        NODE
 ------------------------------------------------------------------------------------------------------------------------------------
   0.29373E-04,       1200 -0.18996E-05,        184

 NO OUTPUT CONTROL FOR STRESS PERIOD        2   TIME STEP      486



          TIME SUMMARY AT END OF TIME STEP       486 IN STRESS PERIOD         2
                    SECONDS     MINUTES      HOURS       DAYS        YEARS
                    -----------------------------------------------------------
   TIME STEP LENGTH  86.400      1.4400     2.40000E-02 1.00000E-03 2.73785E-06
 STRESS PERIOD TIME  41990.      699.84      11.664     0.48600     1.33060E-03
         TOTAL TIME 1.28390E+05  2139.8      35.664      1.4860     4.06845E-03
1
 ------------------------------------------------------------------------------------------------------------
 
 SOLVING FOR TRANSPORT 

          SEQUENTIAL TRANSPORT ITERATION LOOP NUMBER    1
          -----------------------------------------------

 ------------------------------------------------------------------------------------------------------------------------
     1 CALLS TO SPARSE MATRIX SOLVER PACKAGE IN TRANSPORT TIME STEP     486 STRESS PERIOD       2 SPECIES  1

 TOTAL OF       1OUTER ITERATIONS
  MAXIMUM CHANGE FOR EACH ITERATION:
   MAX. CHANGE        NODE  MAX. CHANGE        NODE  MAX. CHANGE        NODE  MAX. CHANGE        NODE  MAX. CHANGE        NODE
 ------------------------------------------------------------------------------------------------------------------------------------
  -0.49589    ,       1200
     TRANSPORT SOLUTION COMPLETE FOR COMPONENT SPECIES NUMBER    1
     ------------------------------------------------------------

 TRANSPORT SOLUTION COMPLETE FOR ALL SPECIES, SORTING OUTPUT FOR CONCENTRATIONS AND MASS BALANCE
 ----------------------------------------------------------------------------------------------------
     TRANSPORT OUTPUT FOR COMPONENT SPECIES NUMBER    1
     ------------------------------------------------------------
 -------------------------------------------------------------------------------------
 
 SOLVING FOR HEAD 

 Outer-Iteration  Inner-Iteration  Backtracking  Number of        Incoming       Outgoing      Cutoff     Maximum Head Change      Maximum Head Change
     Number           Count           Flag       Backtracks       Residual       Residual      Residual            Value               Location
        1                             0             0          0.479049E-01     0.479049E-01   -1.00000    
        1               12                                                                                       0.446810E-04               1200           GWF-node number
        2                             0             0          0.126352E-05     0.126352E-05   -1.00000    
        2                1                                                                                       0.620797E-06               1966           GWF-node number
     2 CALLS TO SPARSE MATRIX SOLVER PACKAGE  IN FLOW TIME STEP     487 STRESS PERIOD       2

 TOTAL OF       2OUTER ITERATIONS
  MAXIMUM CHANGE FOR EACH ITERATION:
   MAX. CHANGE        NODE  MAX. CHANGE        NODE  MAX. CHANGE        NODE  MAX. CHANGE        NODE  MAX. CHANGE        NODE
 ------------------------------------------------------------------------------------------------------------------------------------
   0.44681E-04,       1200  0.62080E-06,       1966

 NO OUTPUT CONTROL FOR STRESS PERIOD        2   TIME STEP      487



          TIME SUMMARY AT END OF TIME STEP       487 IN STRESS PERIOD         2
                    SECONDS     MINUTES      HOURS       DAYS        YEARS
                    -----------------------------------------------------------
   TIME STEP LENGTH  86.400      1.4400     2.40000E-02 1.00000E-03 2.73785E-06
 STRESS PERIOD TIME  42077.      701.28      11.688     0.48700     1.33333E-03
         TOTAL TIME 1.28477E+05  2141.3      35.688      1.4870     4.07118E-03
1
 ------------------------------------------------------------------------------------------------------------
 
 SOLVING FOR TRANSPORT 

          SEQUENTIAL TRANSPORT ITERATION LOOP NUMBER    1
          -----------------------------------------------

 ------------------------------------------------------------------------------------------------------------------------
     1 CALLS TO SPARSE MATRIX SOLVER PACKAGE IN TRANSPORT TIME STEP     487 STRESS PERIOD       2 SPECIES  1

 TOTAL OF       1OUTER ITERATIONS
  MAXIMUM CHANGE FOR EACH ITERATION:
   MAX. CHANGE        NODE  MAX. CHANGE        NODE  MAX. CHANGE        NODE  MAX. CHANGE        NODE  MAX. CHANGE        NODE
 ------------------------------------------------------------------------------------------------------------------------------------
  -0.47480    ,       1200
     TRANSPORT SOLUTION COMPLETE FOR COMPONENT SPECIES NUMBER    1
     ------------------------------------------------------------

 TRANSPORT SOLUTION COMPLETE FOR ALL SPECIES, SORTING OUTPUT FOR CONCENTRATIONS AND MASS BALANCE
 ----------------------------------------------------------------------------------------------------
     TRANSPORT OUTPUT FOR COMPONENT SPECIES NUMBER    1
     ------------------------------------------------------------
 -------------------------------------------------------------------------------------
 
 SOLVING FOR HEAD 

 Outer-Iteration  Inner-Iteration  Backtracking  Number of        Incoming       Outgoing      Cutoff     Maximum Head Change      Maximum Head Change
     Number           Count           Flag       Backtracks       Residual       Residual      Residual            Value               Location
        1                             0             0          0.707829E-01     0.707829E-01   -1.00000    
        1               12                                                                                       0.488384E-04               1200           GWF-node number
        2                             0             0          0.433435E-06     0.433435E-06   -1.00000    
        2                1                                                                                       0.591235E-06               1223           GWF-node number
     2 CALLS TO SPARSE MATRIX SOLVER PACKAGE  IN FLOW TIME STEP     488 STRESS PERIOD       2

 TOTAL OF       2OUTER ITERATIONS
  MAXIMUM CHANGE FOR EACH ITERATION:
   MAX. CHANGE        NODE  MAX. CHANGE        NODE  MAX. CHANGE        NODE  MAX. CHANGE        NODE  MAX. CHANGE        NODE
 ------------------------------------------------------------------------------------------------------------------------------------
   0.48838E-04,       1200  0.59124E-06,       1223

 NO OUTPUT CONTROL FOR STRESS PERIOD        2   TIME STEP      488



          TIME SUMMARY AT END OF TIME STEP       488 IN STRESS PERIOD         2
                    SECONDS     MINUTES      HOURS       DAYS        YEARS
                    -----------------------------------------------------------
   TIME STEP LENGTH  86.400      1.4400     2.40000E-02 1.00000E-03 2.73785E-06
 STRESS PERIOD TIME  42163.      702.72      11.712     0.48800     1.33607E-03
         TOTAL TIME 1.28563E+05  2142.7      35.712      1.4880     4.07392E-03
1
 ------------------------------------------------------------------------------------------------------------
 
 SOLVING FOR TRANSPORT 

          SEQUENTIAL TRANSPORT ITERATION LOOP NUMBER    1
          -----------------------------------------------

 ------------------------------------------------------------------------------------------------------------------------
     1 CALLS TO SPARSE MATRIX SOLVER PACKAGE IN TRANSPORT TIME STEP     488 STRESS PERIOD       2 SPECIES  1

 TOTAL OF       1OUTER ITERATIONS
  MAXIMUM CHANGE FOR EACH ITERATION:
   MAX. CHANGE        NODE  MAX. CHANGE        NODE  MAX. CHANGE        NODE  MAX. CHANGE        NODE  MAX. CHANGE        NODE
 ------------------------------------------------------------------------------------------------------------------------------------
   0.38749    ,       1440
     TRANSPORT SOLUTION COMPLETE FOR COMPONENT SPECIES NUMBER    1
     ------------------------------------------------------------

 TRANSPORT SOLUTION COMPLETE FOR ALL SPECIES, SORTING OUTPUT FOR CONCENTRATIONS AND MASS BALANCE
 ----------------------------------------------------------------------------------------------------
     TRANSPORT OUTPUT FOR COMPONENT SPECIES NUMBER    1
     ------------------------------------------------------------
 -------------------------------------------------------------------------------------
 
 SOLVING FOR HEAD 

 Outer-Iteration  Inner-Iteration  Backtracking  Number of        Incoming       Outgoing      Cutoff     Maximum Head Change      Maximum Head Change
     Number           Count           Flag       Backtracks       Residual       Residual      Residual            Value               Location
        1                             0             0          0.118543E-01     0.118543E-01   -1.00000    
        1                8                                                                                      -0.287989E-04               1440           GWF-node number
        2                             0             0          0.669831E-05     0.669831E-05   -1.00000    
        2                3                                                                                       0.102872E-05               1572           GWF-node number
     2 CALLS TO SPARSE MATRIX SOLVER PACKAGE  IN FLOW TIME STEP     489 STRESS PERIOD       2

 TOTAL OF       2OUTER ITERATIONS
  MAXIMUM CHANGE FOR EACH ITERATION:
   MAX. CHANGE        NODE  MAX. CHANGE        NODE  MAX. CHANGE        NODE  MAX. CHANGE        NODE  MAX. CHANGE        NODE
 ------------------------------------------------------------------------------------------------------------------------------------
  -0.28799E-04,       1440  0.10287E-05,       1572

 NO OUTPUT CONTROL FOR STRESS PERIOD        2   TIME STEP      489



          TIME SUMMARY AT END OF TIME STEP       489 IN STRESS PERIOD         2
                    SECONDS     MINUTES      HOURS       DAYS        YEARS
                    -----------------------------------------------------------
   TIME STEP LENGTH  86.400      1.4400     2.40000E-02 1.00000E-03 2.73785E-06
 STRESS PERIOD TIME  42250.      704.16      11.736     0.48900     1.33881E-03
         TOTAL TIME 1.28650E+05  2144.2      35.736      1.4890     4.07666E-03
1
 ------------------------------------------------------------------------------------------------------------
 
 SOLVING FOR TRANSPORT 

          SEQUENTIAL TRANSPORT ITERATION LOOP NUMBER    1
          -----------------------------------------------

 ------------------------------------------------------------------------------------------------------------------------
     1 CALLS TO SPARSE MATRIX SOLVER PACKAGE IN TRANSPORT TIME STEP     489 STRESS PERIOD       2 SPECIES  1

 TOTAL OF       1OUTER ITERATIONS
  MAXIMUM CHANGE FOR EACH ITERATION:
   MAX. CHANGE        NODE  MAX. CHANGE        NODE  MAX. CHANGE        NODE  MAX. CHANGE        NODE  MAX. CHANGE        NODE
 ------------------------------------------------------------------------------------------------------------------------------------
   0.38871    ,       1360
     TRANSPORT SOLUTION COMPLETE FOR COMPONENT SPECIES NUMBER    1
     ------------------------------------------------------------

 TRANSPORT SOLUTION COMPLETE FOR ALL SPECIES, SORTING OUTPUT FOR CONCENTRATIONS AND MASS BALANCE
 ----------------------------------------------------------------------------------------------------
     TRANSPORT OUTPUT FOR COMPONENT SPECIES NUMBER    1
     ------------------------------------------------------------
 -------------------------------------------------------------------------------------
 
 SOLVING FOR HEAD 

 Outer-Iteration  Inner-Iteration  Backtracking  Number of        Incoming       Outgoing      Cutoff     Maximum Head Change      Maximum Head Change
     Number           Count           Flag       Backtracks       Residual       Residual      Residual            Value               Location
        1                             0             0          0.852011E-02     0.852011E-02   -1.00000    
        1               11                                                                                      -0.245921E-04               1440           GWF-node number
        2                             0             0          0.485815E-06     0.485815E-06   -1.00000    
        2                1                                                                                       0.731019E-06               1620           GWF-node number
     2 CALLS TO SPARSE MATRIX SOLVER PACKAGE  IN FLOW TIME STEP     490 STRESS PERIOD       2

 TOTAL OF       2OUTER ITERATIONS
  MAXIMUM CHANGE FOR EACH ITERATION:
   MAX. CHANGE        NODE  MAX. CHANGE        NODE  MAX. CHANGE        NODE  MAX. CHANGE        NODE  MAX. CHANGE        NODE
 ------------------------------------------------------------------------------------------------------------------------------------
  -0.24592E-04,       1440  0.73102E-06,       1620

 NO OUTPUT CONTROL FOR STRESS PERIOD        2   TIME STEP      490



          TIME SUMMARY AT END OF TIME STEP       490 IN STRESS PERIOD         2
                    SECONDS     MINUTES      HOURS       DAYS        YEARS
                    -----------------------------------------------------------
   TIME STEP LENGTH  86.400      1.4400     2.40000E-02 1.00000E-03 2.73785E-06
 STRESS PERIOD TIME  42336.      705.60      11.760     0.49000     1.34155E-03
         TOTAL TIME 1.28736E+05  2145.6      35.760      1.4900     4.07940E-03
1
 ------------------------------------------------------------------------------------------------------------
 
 SOLVING FOR TRANSPORT 

          SEQUENTIAL TRANSPORT ITERATION LOOP NUMBER    1
          -----------------------------------------------

 ------------------------------------------------------------------------------------------------------------------------
     1 CALLS TO SPARSE MATRIX SOLVER PACKAGE IN TRANSPORT TIME STEP     490 STRESS PERIOD       2 SPECIES  1

 TOTAL OF       1OUTER ITERATIONS
  MAXIMUM CHANGE FOR EACH ITERATION:
   MAX. CHANGE        NODE  MAX. CHANGE        NODE  MAX. CHANGE        NODE  MAX. CHANGE        NODE  MAX. CHANGE        NODE
 ------------------------------------------------------------------------------------------------------------------------------------
   0.44718    ,       1360
     TRANSPORT SOLUTION COMPLETE FOR COMPONENT SPECIES NUMBER    1
     ------------------------------------------------------------

 TRANSPORT SOLUTION COMPLETE FOR ALL SPECIES, SORTING OUTPUT FOR CONCENTRATIONS AND MASS BALANCE
 ----------------------------------------------------------------------------------------------------
     TRANSPORT OUTPUT FOR COMPONENT SPECIES NUMBER    1
     ------------------------------------------------------------
 -------------------------------------------------------------------------------------
 
 SOLVING FOR HEAD 

 Outer-Iteration  Inner-Iteration  Backtracking  Number of        Incoming       Outgoing      Cutoff     Maximum Head Change      Maximum Head Change
     Number           Count           Flag       Backtracks       Residual       Residual      Residual            Value               Location
        1                             0             0          0.104389E-01     0.104389E-01   -1.00000    
        1               10                                                                                      -0.264520E-04               1360           GWF-node number
        2                             0             0          0.274173E-06     0.274173E-06   -1.00000    
        2                1                                                                                       0.322316E-06               1243           GWF-node number
     2 CALLS TO SPARSE MATRIX SOLVER PACKAGE  IN FLOW TIME STEP     491 STRESS PERIOD       2

 TOTAL OF       2OUTER ITERATIONS
  MAXIMUM CHANGE FOR EACH ITERATION:
   MAX. CHANGE        NODE  MAX. CHANGE        NODE  MAX. CHANGE        NODE  MAX. CHANGE        NODE  MAX. CHANGE        NODE
 ------------------------------------------------------------------------------------------------------------------------------------
  -0.26452E-04,       1360  0.32232E-06,       1243

 NO OUTPUT CONTROL FOR STRESS PERIOD        2   TIME STEP      491



          TIME SUMMARY AT END OF TIME STEP       491 IN STRESS PERIOD         2
                    SECONDS     MINUTES      HOURS       DAYS        YEARS
                    -----------------------------------------------------------
   TIME STEP LENGTH  86.400      1.4400     2.40000E-02 1.00000E-03 2.73785E-06
 STRESS PERIOD TIME  42422.      707.04      11.784     0.49100     1.34428E-03
         TOTAL TIME 1.28822E+05  2147.0      35.784      1.4910     4.08214E-03
1
 ------------------------------------------------------------------------------------------------------------
 
 SOLVING FOR TRANSPORT 

          SEQUENTIAL TRANSPORT ITERATION LOOP NUMBER    1
          -----------------------------------------------

 ------------------------------------------------------------------------------------------------------------------------
     1 CALLS TO SPARSE MATRIX SOLVER PACKAGE IN TRANSPORT TIME STEP     491 STRESS PERIOD       2 SPECIES  1

 TOTAL OF       1OUTER ITERATIONS
  MAXIMUM CHANGE FOR EACH ITERATION:
   MAX. CHANGE        NODE  MAX. CHANGE        NODE  MAX. CHANGE        NODE  MAX. CHANGE        NODE  MAX. CHANGE        NODE
 ------------------------------------------------------------------------------------------------------------------------------------
   0.39789    ,       1280
     TRANSPORT SOLUTION COMPLETE FOR COMPONENT SPECIES NUMBER    1
     ------------------------------------------------------------

 TRANSPORT SOLUTION COMPLETE FOR ALL SPECIES, SORTING OUTPUT FOR CONCENTRATIONS AND MASS BALANCE
 ----------------------------------------------------------------------------------------------------
     TRANSPORT OUTPUT FOR COMPONENT SPECIES NUMBER    1
     ------------------------------------------------------------
 -------------------------------------------------------------------------------------
 
 SOLVING FOR HEAD 

 Outer-Iteration  Inner-Iteration  Backtracking  Number of        Incoming       Outgoing      Cutoff     Maximum Head Change      Maximum Head Change
     Number           Count           Flag       Backtracks       Residual       Residual      Residual            Value               Location
        1                             0             0          0.862603E-02     0.862603E-02   -1.00000    
        1               13                                                                                      -0.229257E-04               1360           GWF-node number
        2                             0             0          0.160680E-07     0.160680E-07   -1.00000    
        2                1                                                                                       0.121589E-06                504           GWF-node number
     2 CALLS TO SPARSE MATRIX SOLVER PACKAGE  IN FLOW TIME STEP     492 STRESS PERIOD       2

 TOTAL OF       2OUTER ITERATIONS
  MAXIMUM CHANGE FOR EACH ITERATION:
   MAX. CHANGE        NODE  MAX. CHANGE        NODE  MAX. CHANGE        NODE  MAX. CHANGE        NODE  MAX. CHANGE        NODE
 ------------------------------------------------------------------------------------------------------------------------------------
  -0.22926E-04,       1360  0.12159E-06,        504

 NO OUTPUT CONTROL FOR STRESS PERIOD        2   TIME STEP      492



          TIME SUMMARY AT END OF TIME STEP       492 IN STRESS PERIOD         2
                    SECONDS     MINUTES      HOURS       DAYS        YEARS
                    -----------------------------------------------------------
   TIME STEP LENGTH  86.400      1.4400     2.40000E-02 1.00000E-03 2.73785E-06
 STRESS PERIOD TIME  42509.      708.48      11.808     0.49200     1.34702E-03
         TOTAL TIME 1.28909E+05  2148.5      35.808      1.4920     4.08487E-03
1
 ------------------------------------------------------------------------------------------------------------
 
 SOLVING FOR TRANSPORT 

          SEQUENTIAL TRANSPORT ITERATION LOOP NUMBER    1
          -----------------------------------------------

 ------------------------------------------------------------------------------------------------------------------------
     1 CALLS TO SPARSE MATRIX SOLVER PACKAGE IN TRANSPORT TIME STEP     492 STRESS PERIOD       2 SPECIES  1

 TOTAL OF       1OUTER ITERATIONS
  MAXIMUM CHANGE FOR EACH ITERATION:
   MAX. CHANGE        NODE  MAX. CHANGE        NODE  MAX. CHANGE        NODE  MAX. CHANGE        NODE  MAX. CHANGE        NODE
 ------------------------------------------------------------------------------------------------------------------------------------
   0.40423    ,       1280
     TRANSPORT SOLUTION COMPLETE FOR COMPONENT SPECIES NUMBER    1
     ------------------------------------------------------------

 TRANSPORT SOLUTION COMPLETE FOR ALL SPECIES, SORTING OUTPUT FOR CONCENTRATIONS AND MASS BALANCE
 ----------------------------------------------------------------------------------------------------
     TRANSPORT OUTPUT FOR COMPONENT SPECIES NUMBER    1
     ------------------------------------------------------------
 -------------------------------------------------------------------------------------
 
 SOLVING FOR HEAD 

 Outer-Iteration  Inner-Iteration  Backtracking  Number of        Incoming       Outgoing      Cutoff     Maximum Head Change      Maximum Head Change
     Number           Count           Flag       Backtracks       Residual       Residual      Residual            Value               Location
        1                             0             0          0.751600E-02     0.751600E-02   -1.00000    
        1               10                                                                                      -0.201323E-04               1280           GWF-node number
        2                             0             0          0.321391E-06     0.321391E-06   -1.00000    
        2                1                                                                                       0.624244E-06               2185           GWF-node number
     2 CALLS TO SPARSE MATRIX SOLVER PACKAGE  IN FLOW TIME STEP     493 STRESS PERIOD       2

 TOTAL OF       2OUTER ITERATIONS
  MAXIMUM CHANGE FOR EACH ITERATION:
   MAX. CHANGE        NODE  MAX. CHANGE        NODE  MAX. CHANGE        NODE  MAX. CHANGE        NODE  MAX. CHANGE        NODE
 ------------------------------------------------------------------------------------------------------------------------------------
  -0.20132E-04,       1280  0.62424E-06,       2185

 NO OUTPUT CONTROL FOR STRESS PERIOD        2   TIME STEP      493



          TIME SUMMARY AT END OF TIME STEP       493 IN STRESS PERIOD         2
                    SECONDS     MINUTES      HOURS       DAYS        YEARS
                    -----------------------------------------------------------
   TIME STEP LENGTH  86.400      1.4400     2.40000E-02 1.00000E-03 2.73785E-06
 STRESS PERIOD TIME  42595.      709.92      11.832     0.49300     1.34976E-03
         TOTAL TIME 1.28995E+05  2149.9      35.832      1.4930     4.08761E-03
1
 ------------------------------------------------------------------------------------------------------------
 
 SOLVING FOR TRANSPORT 

          SEQUENTIAL TRANSPORT ITERATION LOOP NUMBER    1
          -----------------------------------------------

 ------------------------------------------------------------------------------------------------------------------------
     1 CALLS TO SPARSE MATRIX SOLVER PACKAGE IN TRANSPORT TIME STEP     493 STRESS PERIOD       2 SPECIES  1

 TOTAL OF       1OUTER ITERATIONS
  MAXIMUM CHANGE FOR EACH ITERATION:
   MAX. CHANGE        NODE  MAX. CHANGE        NODE  MAX. CHANGE        NODE  MAX. CHANGE        NODE  MAX. CHANGE        NODE
 ------------------------------------------------------------------------------------------------------------------------------------
   0.36782    ,       1280
     TRANSPORT SOLUTION COMPLETE FOR COMPONENT SPECIES NUMBER    1
     ------------------------------------------------------------

 TRANSPORT SOLUTION COMPLETE FOR ALL SPECIES, SORTING OUTPUT FOR CONCENTRATIONS AND MASS BALANCE
 ----------------------------------------------------------------------------------------------------
     TRANSPORT OUTPUT FOR COMPONENT SPECIES NUMBER    1
     ------------------------------------------------------------
 -------------------------------------------------------------------------------------
 
 SOLVING FOR HEAD 

 Outer-Iteration  Inner-Iteration  Backtracking  Number of        Incoming       Outgoing      Cutoff     Maximum Head Change      Maximum Head Change
     Number           Count           Flag       Backtracks       Residual       Residual      Residual            Value               Location
        1                             0             0          0.879605E-02     0.879605E-02   -1.00000    
        1               11                                                                                      -0.218474E-04               1280           GWF-node number
        2                             0             0          0.125624E-06     0.125624E-06   -1.00000    
        2                1                                                                                       0.332314E-06                647           GWF-node number
     2 CALLS TO SPARSE MATRIX SOLVER PACKAGE  IN FLOW TIME STEP     494 STRESS PERIOD       2

 TOTAL OF       2OUTER ITERATIONS
  MAXIMUM CHANGE FOR EACH ITERATION:
   MAX. CHANGE        NODE  MAX. CHANGE        NODE  MAX. CHANGE        NODE  MAX. CHANGE        NODE  MAX. CHANGE        NODE
 ------------------------------------------------------------------------------------------------------------------------------------
  -0.21847E-04,       1280  0.33231E-06,        647

 NO OUTPUT CONTROL FOR STRESS PERIOD        2   TIME STEP      494



          TIME SUMMARY AT END OF TIME STEP       494 IN STRESS PERIOD         2
                    SECONDS     MINUTES      HOURS       DAYS        YEARS
                    -----------------------------------------------------------
   TIME STEP LENGTH  86.400      1.4400     2.40000E-02 1.00000E-03 2.73785E-06
 STRESS PERIOD TIME  42682.      711.36      11.856     0.49400     1.35250E-03
         TOTAL TIME 1.29082E+05  2151.4      35.856      1.4940     4.09035E-03
1
 ------------------------------------------------------------------------------------------------------------
 
 SOLVING FOR TRANSPORT 

          SEQUENTIAL TRANSPORT ITERATION LOOP NUMBER    1
          -----------------------------------------------

 ------------------------------------------------------------------------------------------------------------------------
     1 CALLS TO SPARSE MATRIX SOLVER PACKAGE IN TRANSPORT TIME STEP     494 STRESS PERIOD       2 SPECIES  1

 TOTAL OF       1OUTER ITERATIONS
  MAXIMUM CHANGE FOR EACH ITERATION:
   MAX. CHANGE        NODE  MAX. CHANGE        NODE  MAX. CHANGE        NODE  MAX. CHANGE        NODE  MAX. CHANGE        NODE
 ------------------------------------------------------------------------------------------------------------------------------------
   0.30960    ,       1040
     TRANSPORT SOLUTION COMPLETE FOR COMPONENT SPECIES NUMBER    1
     ------------------------------------------------------------

 TRANSPORT SOLUTION COMPLETE FOR ALL SPECIES, SORTING OUTPUT FOR CONCENTRATIONS AND MASS BALANCE
 ----------------------------------------------------------------------------------------------------
     TRANSPORT OUTPUT FOR COMPONENT SPECIES NUMBER    1
     ------------------------------------------------------------
 -------------------------------------------------------------------------------------
 
 SOLVING FOR HEAD 

 Outer-Iteration  Inner-Iteration  Backtracking  Number of        Incoming       Outgoing      Cutoff     Maximum Head Change      Maximum Head Change
     Number           Count           Flag       Backtracks       Residual       Residual      Residual            Value               Location
        1                             0             0          0.584241E-02     0.584241E-02   -1.00000    
        1               10                                                                                      -0.165429E-04               1280           GWF-node number
        2                             0             0          0.669014E-06     0.669014E-06   -1.00000    
        2                1                                                                                      -0.708654E-06               1877           GWF-node number
     2 CALLS TO SPARSE MATRIX SOLVER PACKAGE  IN FLOW TIME STEP     495 STRESS PERIOD       2

 TOTAL OF       2OUTER ITERATIONS
  MAXIMUM CHANGE FOR EACH ITERATION:
   MAX. CHANGE        NODE  MAX. CHANGE        NODE  MAX. CHANGE        NODE  MAX. CHANGE        NODE  MAX. CHANGE        NODE
 ------------------------------------------------------------------------------------------------------------------------------------
  -0.16543E-04,       1280 -0.70865E-06,       1877

 NO OUTPUT CONTROL FOR STRESS PERIOD        2   TIME STEP      495



          TIME SUMMARY AT END OF TIME STEP       495 IN STRESS PERIOD         2
                    SECONDS     MINUTES      HOURS       DAYS        YEARS
                    -----------------------------------------------------------
   TIME STEP LENGTH  86.400      1.4400     2.40000E-02 1.00000E-03 2.73785E-06
 STRESS PERIOD TIME  42768.      712.80      11.880     0.49500     1.35524E-03
         TOTAL TIME 1.29168E+05  2152.8      35.880      1.4950     4.09309E-03
1
 ------------------------------------------------------------------------------------------------------------
 
 SOLVING FOR TRANSPORT 

          SEQUENTIAL TRANSPORT ITERATION LOOP NUMBER    1
          -----------------------------------------------

 ------------------------------------------------------------------------------------------------------------------------
     1 CALLS TO SPARSE MATRIX SOLVER PACKAGE IN TRANSPORT TIME STEP     495 STRESS PERIOD       2 SPECIES  1

 TOTAL OF       1OUTER ITERATIONS
  MAXIMUM CHANGE FOR EACH ITERATION:
   MAX. CHANGE        NODE  MAX. CHANGE        NODE  MAX. CHANGE        NODE  MAX. CHANGE        NODE  MAX. CHANGE        NODE
 ------------------------------------------------------------------------------------------------------------------------------------
   0.25059    ,        960
     TRANSPORT SOLUTION COMPLETE FOR COMPONENT SPECIES NUMBER    1
     ------------------------------------------------------------

 TRANSPORT SOLUTION COMPLETE FOR ALL SPECIES, SORTING OUTPUT FOR CONCENTRATIONS AND MASS BALANCE
 ----------------------------------------------------------------------------------------------------
     TRANSPORT OUTPUT FOR COMPONENT SPECIES NUMBER    1
     ------------------------------------------------------------
 -------------------------------------------------------------------------------------
 
 SOLVING FOR HEAD 

 Outer-Iteration  Inner-Iteration  Backtracking  Number of        Incoming       Outgoing      Cutoff     Maximum Head Change      Maximum Head Change
     Number           Count           Flag       Backtracks       Residual       Residual      Residual            Value               Location
        1                             0             0          0.388047E-02     0.388047E-02   -1.00000    
        1               10                                                                                       0.148029E-04               1517           GWF-node number
        2                             0             0          0.109687E-05     0.109687E-05   -1.00000    
        2                1                                                                                       0.938700E-06               2881           GWF-node number
     2 CALLS TO SPARSE MATRIX SOLVER PACKAGE  IN FLOW TIME STEP     496 STRESS PERIOD       2

 TOTAL OF       2OUTER ITERATIONS
  MAXIMUM CHANGE FOR EACH ITERATION:
   MAX. CHANGE        NODE  MAX. CHANGE        NODE  MAX. CHANGE        NODE  MAX. CHANGE        NODE  MAX. CHANGE        NODE
 ------------------------------------------------------------------------------------------------------------------------------------
   0.14803E-04,       1517  0.93870E-06,       2881

 NO OUTPUT CONTROL FOR STRESS PERIOD        2   TIME STEP      496



          TIME SUMMARY AT END OF TIME STEP       496 IN STRESS PERIOD         2
                    SECONDS     MINUTES      HOURS       DAYS        YEARS
                    -----------------------------------------------------------
   TIME STEP LENGTH  86.400      1.4400     2.40000E-02 1.00000E-03 2.73785E-06
 STRESS PERIOD TIME  42854.      714.24      11.904     0.49600     1.35797E-03
         TOTAL TIME 1.29254E+05  2154.2      35.904      1.4960     4.09582E-03
1
 ------------------------------------------------------------------------------------------------------------
 
 SOLVING FOR TRANSPORT 

          SEQUENTIAL TRANSPORT ITERATION LOOP NUMBER    1
          -----------------------------------------------

 ------------------------------------------------------------------------------------------------------------------------
     1 CALLS TO SPARSE MATRIX SOLVER PACKAGE IN TRANSPORT TIME STEP     496 STRESS PERIOD       2 SPECIES  1

 TOTAL OF       1OUTER ITERATIONS
  MAXIMUM CHANGE FOR EACH ITERATION:
   MAX. CHANGE        NODE  MAX. CHANGE        NODE  MAX. CHANGE        NODE  MAX. CHANGE        NODE  MAX. CHANGE        NODE
 ------------------------------------------------------------------------------------------------------------------------------------
   0.19342    ,        880
     TRANSPORT SOLUTION COMPLETE FOR COMPONENT SPECIES NUMBER    1
     ------------------------------------------------------------

 TRANSPORT SOLUTION COMPLETE FOR ALL SPECIES, SORTING OUTPUT FOR CONCENTRATIONS AND MASS BALANCE
 ----------------------------------------------------------------------------------------------------
     TRANSPORT OUTPUT FOR COMPONENT SPECIES NUMBER    1
     ------------------------------------------------------------
 -------------------------------------------------------------------------------------
 
 SOLVING FOR HEAD 

 Outer-Iteration  Inner-Iteration  Backtracking  Number of        Incoming       Outgoing      Cutoff     Maximum Head Change      Maximum Head Change
     Number           Count           Flag       Backtracks       Residual       Residual      Residual            Value               Location
        1                             0             0          0.314554E-02     0.314554E-02   -1.00000    
        1               10                                                                                       0.162371E-04               1517           GWF-node number
        2                             0             0          0.357600E-06     0.357600E-06   -1.00000    
        2                1                                                                                      -0.462607E-06               2115           GWF-node number
     2 CALLS TO SPARSE MATRIX SOLVER PACKAGE  IN FLOW TIME STEP     497 STRESS PERIOD       2

 TOTAL OF       2OUTER ITERATIONS
  MAXIMUM CHANGE FOR EACH ITERATION:
   MAX. CHANGE        NODE  MAX. CHANGE        NODE  MAX. CHANGE        NODE  MAX. CHANGE        NODE  MAX. CHANGE        NODE
 ------------------------------------------------------------------------------------------------------------------------------------
   0.16237E-04,       1517 -0.46261E-06,       2115

 NO OUTPUT CONTROL FOR STRESS PERIOD        2   TIME STEP      497



          TIME SUMMARY AT END OF TIME STEP       497 IN STRESS PERIOD         2
                    SECONDS     MINUTES      HOURS       DAYS        YEARS
                    -----------------------------------------------------------
   TIME STEP LENGTH  86.400      1.4400     2.40000E-02 1.00000E-03 2.73785E-06
 STRESS PERIOD TIME  42941.      715.68      11.928     0.49700     1.36071E-03
         TOTAL TIME 1.29341E+05  2155.7      35.928      1.4970     4.09856E-03
1
 ------------------------------------------------------------------------------------------------------------
 
 SOLVING FOR TRANSPORT 

          SEQUENTIAL TRANSPORT ITERATION LOOP NUMBER    1
          -----------------------------------------------

 ------------------------------------------------------------------------------------------------------------------------
     1 CALLS TO SPARSE MATRIX SOLVER PACKAGE IN TRANSPORT TIME STEP     497 STRESS PERIOD       2 SPECIES  1

 TOTAL OF       1OUTER ITERATIONS
  MAXIMUM CHANGE FOR EACH ITERATION:
   MAX. CHANGE        NODE  MAX. CHANGE        NODE  MAX. CHANGE        NODE  MAX. CHANGE        NODE  MAX. CHANGE        NODE
 ------------------------------------------------------------------------------------------------------------------------------------
  -0.14823    ,       1520
     TRANSPORT SOLUTION COMPLETE FOR COMPONENT SPECIES NUMBER    1
     ------------------------------------------------------------

 TRANSPORT SOLUTION COMPLETE FOR ALL SPECIES, SORTING OUTPUT FOR CONCENTRATIONS AND MASS BALANCE
 ----------------------------------------------------------------------------------------------------
     TRANSPORT OUTPUT FOR COMPONENT SPECIES NUMBER    1
     ------------------------------------------------------------
 -------------------------------------------------------------------------------------
 
 SOLVING FOR HEAD 

 Outer-Iteration  Inner-Iteration  Backtracking  Number of        Incoming       Outgoing      Cutoff     Maximum Head Change      Maximum Head Change
     Number           Count           Flag       Backtracks       Residual       Residual      Residual            Value               Location
        1                             0             0          0.354920E-02     0.354920E-02   -1.00000    
        1               10                                                                                       0.192428E-04               1438           GWF-node number
        2                             0             0          0.372039E-06     0.372039E-06   -1.00000    
        2                1                                                                                      -0.605596E-06               2414           GWF-node number
     2 CALLS TO SPARSE MATRIX SOLVER PACKAGE  IN FLOW TIME STEP     498 STRESS PERIOD       2

 TOTAL OF       2OUTER ITERATIONS
  MAXIMUM CHANGE FOR EACH ITERATION:
   MAX. CHANGE        NODE  MAX. CHANGE        NODE  MAX. CHANGE        NODE  MAX. CHANGE        NODE  MAX. CHANGE        NODE
 ------------------------------------------------------------------------------------------------------------------------------------
   0.19243E-04,       1438 -0.60560E-06,       2414

 NO OUTPUT CONTROL FOR STRESS PERIOD        2   TIME STEP      498



          TIME SUMMARY AT END OF TIME STEP       498 IN STRESS PERIOD         2
                    SECONDS     MINUTES      HOURS       DAYS        YEARS
                    -----------------------------------------------------------
   TIME STEP LENGTH  86.400      1.4400     2.40000E-02 1.00000E-03 2.73785E-06
 STRESS PERIOD TIME  43027.      717.12      11.952     0.49800     1.36345E-03
         TOTAL TIME 1.29427E+05  2157.1      35.952      1.4980     4.10130E-03
1
 ------------------------------------------------------------------------------------------------------------
 
 SOLVING FOR TRANSPORT 

          SEQUENTIAL TRANSPORT ITERATION LOOP NUMBER    1
          -----------------------------------------------

 ------------------------------------------------------------------------------------------------------------------------
     1 CALLS TO SPARSE MATRIX SOLVER PACKAGE IN TRANSPORT TIME STEP     498 STRESS PERIOD       2 SPECIES  1

 TOTAL OF       1OUTER ITERATIONS
  MAXIMUM CHANGE FOR EACH ITERATION:
   MAX. CHANGE        NODE  MAX. CHANGE        NODE  MAX. CHANGE        NODE  MAX. CHANGE        NODE  MAX. CHANGE        NODE
 ------------------------------------------------------------------------------------------------------------------------------------
  -0.17831    ,       1520
     TRANSPORT SOLUTION COMPLETE FOR COMPONENT SPECIES NUMBER    1
     ------------------------------------------------------------

 TRANSPORT SOLUTION COMPLETE FOR ALL SPECIES, SORTING OUTPUT FOR CONCENTRATIONS AND MASS BALANCE
 ----------------------------------------------------------------------------------------------------
     TRANSPORT OUTPUT FOR COMPONENT SPECIES NUMBER    1
     ------------------------------------------------------------
 -------------------------------------------------------------------------------------
 
 SOLVING FOR HEAD 

 Outer-Iteration  Inner-Iteration  Backtracking  Number of        Incoming       Outgoing      Cutoff     Maximum Head Change      Maximum Head Change
     Number           Count           Flag       Backtracks       Residual       Residual      Residual            Value               Location
        1                             0             0          0.412229E-02     0.412229E-02   -1.00000    
        1               10                                                                                       0.207451E-04               1438           GWF-node number
        2                             0             0          0.915954E-06     0.915954E-06   -1.00000    
        2                2                                                                                      -0.137053E-05               2801           GWF-node number
     2 CALLS TO SPARSE MATRIX SOLVER PACKAGE  IN FLOW TIME STEP     499 STRESS PERIOD       2

 TOTAL OF       2OUTER ITERATIONS
  MAXIMUM CHANGE FOR EACH ITERATION:
   MAX. CHANGE        NODE  MAX. CHANGE        NODE  MAX. CHANGE        NODE  MAX. CHANGE        NODE  MAX. CHANGE        NODE
 ------------------------------------------------------------------------------------------------------------------------------------
   0.20745E-04,       1438 -0.13705E-05,       2801

 NO OUTPUT CONTROL FOR STRESS PERIOD        2   TIME STEP      499



          TIME SUMMARY AT END OF TIME STEP       499 IN STRESS PERIOD         2
                    SECONDS     MINUTES      HOURS       DAYS        YEARS
                    -----------------------------------------------------------
   TIME STEP LENGTH  86.400      1.4400     2.40000E-02 1.00000E-03 2.73785E-06
 STRESS PERIOD TIME  43114.      718.56      11.976     0.49900     1.36619E-03
         TOTAL TIME 1.29514E+05  2158.6      35.976      1.4990     4.10404E-03
1
 ------------------------------------------------------------------------------------------------------------
 
 SOLVING FOR TRANSPORT 

          SEQUENTIAL TRANSPORT ITERATION LOOP NUMBER    1
          -----------------------------------------------

 ------------------------------------------------------------------------------------------------------------------------
     1 CALLS TO SPARSE MATRIX SOLVER PACKAGE IN TRANSPORT TIME STEP     499 STRESS PERIOD       2 SPECIES  1

 TOTAL OF       1OUTER ITERATIONS
  MAXIMUM CHANGE FOR EACH ITERATION:
   MAX. CHANGE        NODE  MAX. CHANGE        NODE  MAX. CHANGE        NODE  MAX. CHANGE        NODE  MAX. CHANGE        NODE
 ------------------------------------------------------------------------------------------------------------------------------------
  -0.22118    ,       1520
     TRANSPORT SOLUTION COMPLETE FOR COMPONENT SPECIES NUMBER    1
     ------------------------------------------------------------

 TRANSPORT SOLUTION COMPLETE FOR ALL SPECIES, SORTING OUTPUT FOR CONCENTRATIONS AND MASS BALANCE
 ----------------------------------------------------------------------------------------------------
     TRANSPORT OUTPUT FOR COMPONENT SPECIES NUMBER    1
     ------------------------------------------------------------
 -------------------------------------------------------------------------------------
 
 SOLVING FOR HEAD 

 Outer-Iteration  Inner-Iteration  Backtracking  Number of        Incoming       Outgoing      Cutoff     Maximum Head Change      Maximum Head Change
     Number           Count           Flag       Backtracks       Residual       Residual      Residual            Value               Location
        1                             0             0          0.496458E-02     0.496458E-02   -1.00000    
        1                9                                                                                       0.202610E-04               1438           GWF-node number
        2                             0             0          0.841924E-06     0.841924E-06   -1.00000    
        2                1                                                                                       0.822927E-06               2981           GWF-node number
     2 CALLS TO SPARSE MATRIX SOLVER PACKAGE  IN FLOW TIME STEP     500 STRESS PERIOD       2

 TOTAL OF       2OUTER ITERATIONS
  MAXIMUM CHANGE FOR EACH ITERATION:
   MAX. CHANGE        NODE  MAX. CHANGE        NODE  MAX. CHANGE        NODE  MAX. CHANGE        NODE  MAX. CHANGE        NODE
 ------------------------------------------------------------------------------------------------------------------------------------
   0.20261E-04,       1438  0.82293E-06,       2981

 OUTPUT CONTROL FOR STRESS PERIOD        2   TIME STEP      500
    PRINT BUDGET
    PRINT HEAD FOR ALL LAYERS
    SAVE HEAD FOR ALL LAYERS
    SAVE BUDGET
    SAVE CONC FOR ALL LAYERS
 UBDSV1U SAVING "         STORAGE" ON UNIT  53 AT TIME STEP    500, STRESS PERIOD      2
 UBDSV1U SAVING " DENSITY STORAGE" ON UNIT  53 AT TIME STEP    500, STRESS PERIOD      2
 UBDSV2U SAVING "   CONSTANT HEAD" ON UNIT  53 AT TIME STEP    500, STRESS PERIOD      2
 UBDSV1U SAVING "   FLOW JA FACE " ON UNIT  53 AT TIME STEP    500, STRESS PERIOD      2
 UBDSV4U SAVING "           WELLS" ON UNIT  53 AT TIME STEP    500, STRESS PERIOD      2
1
             HEADU IN LAYER       1 AT END OF TIME STEP     500 IN STRESS PERIOD       2 STRESS TIME   0.500000     TOTAL TIME    1.50000    
  -----------------------------------------------------------------------------------------------------------------------------------------
        1..    1.025       1.024       1.024       1.024       1.024       1.024       1.024       1.023       1.023       1.023    
       11..    1.023       1.023       1.023       1.022       1.022       1.022       1.022       1.022       1.021       1.021    
       21..    1.021       1.021       1.021       1.021       1.020       1.020       1.020       1.020       1.020       1.019    
       31..    1.019       1.019       1.019       1.019       1.018       1.018       1.018       1.018       1.017       1.017    
       41..    1.017       1.017       1.016       1.016       1.016       1.016       1.015       1.015       1.015       1.015    
       51..    1.014       1.014       1.014       1.013       1.013       1.013       1.012       1.012       1.012       1.011    
       61..    1.011       1.011       1.010       1.010       1.009       1.009       1.008       1.008       1.007       1.007    
       71..    1.006       1.006       1.005       1.005       1.004       1.003       1.003       1.002       1.001       1.000    
1
             HEADU IN LAYER       2 AT END OF TIME STEP     500 IN STRESS PERIOD       2 STRESS TIME   0.500000     TOTAL TIME    1.50000    
  -----------------------------------------------------------------------------------------------------------------------------------------
       81..    1.025       1.024       1.024       1.024       1.024       1.024       1.024       1.023       1.023       1.023    
       91..    1.023       1.023       1.023       1.022       1.022       1.022       1.022       1.022       1.021       1.021    
      101..    1.021       1.021       1.021       1.021       1.020       1.020       1.020       1.020       1.020       1.019    
      111..    1.019       1.019       1.019       1.019       1.018       1.018       1.018       1.018       1.017       1.017    
      121..    1.017       1.017       1.016       1.016       1.016       1.016       1.015       1.015       1.015       1.015    
      131..    1.014       1.014       1.014       1.013       1.013       1.013       1.012       1.012       1.012       1.011    
      141..    1.011       1.011       1.010       1.010       1.009       1.009       1.008       1.008       1.007       1.007    
      151..    1.006       1.006       1.005       1.005       1.004       1.003       1.003       1.002       1.001       1.000    
1
             HEADU IN LAYER       3 AT END OF TIME STEP     500 IN STRESS PERIOD       2 STRESS TIME   0.500000     TOTAL TIME    1.50000    
  -----------------------------------------------------------------------------------------------------------------------------------------
      161..    1.025       1.024       1.024       1.024       1.024       1.024       1.024       1.023       1.023       1.023    
      171..    1.023       1.023       1.023       1.022       1.022       1.022       1.022       1.022       1.021       1.021    
      181..    1.021       1.021       1.021       1.021       1.020       1.020       1.020       1.020       1.020       1.019    
      191..    1.019       1.019       1.019       1.019       1.018       1.018       1.018       1.018       1.017       1.017    
      201..    1.017       1.017       1.016       1.016       1.016       1.016       1.015       1.015       1.015       1.015    
      211..    1.014       1.014       1.014       1.013       1.013       1.013       1.012       1.012       1.012       1.011    
      221..    1.011       1.011       1.010       1.010       1.009       1.009       1.008       1.008       1.008       1.007    
      231..    1.006       1.006       1.005       1.005       1.004       1.003       1.003       1.002       1.001       1.000    
1
             HEADU IN LAYER       4 AT END OF TIME STEP     500 IN STRESS PERIOD       2 STRESS TIME   0.500000     TOTAL TIME    1.50000    
  -----------------------------------------------------------------------------------------------------------------------------------------
      241..    1.025       1.024       1.024       1.024       1.024       1.024       1.024       1.023       1.023       1.023    
      251..    1.023       1.023       1.023       1.022       1.022       1.022       1.022       1.022       1.021       1.021    
      261..    1.021       1.021       1.021       1.021       1.020       1.020       1.020       1.020       1.020       1.019    
      271..    1.019       1.019       1.019       1.019       1.018       1.018       1.018       1.018       1.017       1.017    
      281..    1.017       1.017       1.016       1.016       1.016       1.016       1.015       1.015       1.015       1.015    
      291..    1.014       1.014       1.014       1.013       1.013       1.013       1.012       1.012       1.012       1.011    
      301..    1.011       1.011       1.010       1.010       1.009       1.009       1.009       1.008       1.008       1.007    
      311..    1.007       1.006       1.005       1.005       1.004       1.003       1.003       1.002       1.001       1.000    
1
             HEADU IN LAYER       5 AT END OF TIME STEP     500 IN STRESS PERIOD       2 STRESS TIME   0.500000     TOTAL TIME    1.50000    
  -----------------------------------------------------------------------------------------------------------------------------------------
      321..    1.025       1.024       1.024       1.024       1.024       1.024       1.024       1.023       1.023       1.023    
      331..    1.023       1.023       1.023       1.022       1.022       1.022       1.022       1.022       1.021       1.021    
      341..    1.021       1.021       1.021       1.021       1.020       1.020       1.020       1.020       1.020       1.019    
      351..    1.019       1.019       1.019       1.019       1.018       1.018       1.018       1.018       1.017       1.017    
      361..    1.017       1.017       1.016       1.016       1.016       1.016       1.015       1.015       1.015       1.015    
      371..    1.014       1.014       1.014       1.013       1.013       1.013       1.012       1.012       1.012       1.011    
      381..    1.011       1.011       1.010       1.010       1.009       1.009       1.009       1.008       1.008       1.007    
      391..    1.007       1.006       1.005       1.005       1.004       1.004       1.003       1.002       1.001       1.000    
1
             HEADU IN LAYER       6 AT END OF TIME STEP     500 IN STRESS PERIOD       2 STRESS TIME   0.500000     TOTAL TIME    1.50000    
  -----------------------------------------------------------------------------------------------------------------------------------------
      401..    1.025       1.024       1.024       1.024       1.024       1.024       1.024       1.023       1.023       1.023    
      411..    1.023       1.023       1.023       1.022       1.022       1.022       1.022       1.022       1.021       1.021    
      421..    1.021       1.021       1.021       1.021       1.020       1.020       1.020       1.020       1.020       1.019    
      431..    1.019       1.019       1.019       1.019       1.018       1.018       1.018       1.018       1.017       1.017    
      441..    1.017       1.017       1.017       1.016       1.016       1.016       1.015       1.015       1.015       1.015    
      451..    1.014       1.014       1.014       1.013       1.013       1.013       1.013       1.012       1.012       1.011    
      461..    1.011       1.011       1.010       1.010       1.010       1.009       1.009       1.008       1.008       1.007    
      471..    1.007       1.006       1.006       1.005       1.004       1.004       1.003       1.002       1.001       1.000    
1
             HEADU IN LAYER       7 AT END OF TIME STEP     500 IN STRESS PERIOD       2 STRESS TIME   0.500000     TOTAL TIME    1.50000    
  -----------------------------------------------------------------------------------------------------------------------------------------
      481..    1.025       1.024       1.024       1.024       1.024       1.024       1.024       1.023       1.023       1.023    
      491..    1.023       1.023       1.023       1.022       1.022       1.022       1.022       1.022       1.021       1.021    
      501..    1.021       1.021       1.021       1.021       1.020       1.020       1.020       1.020       1.020       1.019    
      511..    1.019       1.019       1.019       1.019       1.018       1.018       1.018       1.018       1.017       1.017    
      521..    1.017       1.017       1.017       1.016       1.016       1.016       1.016       1.015       1.015       1.015    
      531..    1.014       1.014       1.014       1.014       1.013       1.013       1.013       1.012       1.012       1.012    
      541..    1.011       1.011       1.010       1.010       1.010       1.009       1.009       1.008       1.008       1.007    
      551..    1.007       1.006       1.006       1.005       1.004       1.004       1.003       1.002       1.001       1.000    
1
             HEADU IN LAYER       8 AT END OF TIME STEP     500 IN STRESS PERIOD       2 STRESS TIME   0.500000     TOTAL TIME    1.50000    
  -----------------------------------------------------------------------------------------------------------------------------------------
      561..    1.025       1.024       1.024       1.024       1.024       1.024       1.024       1.023       1.023       1.023    
      571..    1.023       1.023       1.023       1.022       1.022       1.022       1.022       1.022       1.022       1.021    
      581..    1.021       1.021       1.021       1.021       1.020       1.020       1.020       1.020       1.020       1.019    
      591..    1.019       1.019       1.019       1.019       1.018       1.018       1.018       1.018       1.018       1.017    
      601..    1.017       1.017       1.017       1.016       1.016       1.016       1.016       1.015       1.015       1.015    
      611..    1.014       1.014       1.014       1.014       1.013       1.013       1.013       1.012       1.012       1.012    
      621..    1.011       1.011       1.010       1.010       1.010       1.009       1.009       1.008       1.008       1.007    
      631..    1.007       1.006       1.006       1.005       1.004       1.004       1.003       1.002       1.001       1.000    
1
             HEADU IN LAYER       9 AT END OF TIME STEP     500 IN STRESS PERIOD       2 STRESS TIME   0.500000     TOTAL TIME    1.50000    
  -----------------------------------------------------------------------------------------------------------------------------------------
      641..    1.025       1.024       1.024       1.024       1.024       1.024       1.024       1.023       1.023       1.023    
      651..    1.023       1.023       1.023       1.022       1.022       1.022       1.022       1.022       1.022       1.021    
      661..    1.021       1.021       1.021       1.021       1.020       1.020       1.020       1.020       1.020       1.019    
      671..    1.019       1.019       1.019       1.019       1.018       1.018       1.018       1.018       1.018       1.017    
      681..    1.017       1.017       1.017       1.016       1.016       1.016       1.016       1.015       1.015       1.015    
      691..    1.015       1.014       1.014       1.014       1.013       1.013       1.013       1.012       1.012       1.012    
      701..    1.011       1.011       1.010       1.010       1.010       1.009       1.009       1.008       1.008       1.007    
      711..    1.007       1.006       1.006       1.005       1.004       1.004       1.003       1.002       1.001       1.000    
1
             HEADU IN LAYER      10 AT END OF TIME STEP     500 IN STRESS PERIOD       2 STRESS TIME   0.500000     TOTAL TIME    1.50000    
  -----------------------------------------------------------------------------------------------------------------------------------------
      721..    1.025       1.024       1.024       1.024       1.024       1.024       1.024       1.023       1.023       1.023    
      731..    1.023       1.023       1.023       1.022       1.022       1.022       1.022       1.022       1.022       1.021    
      741..    1.021       1.021       1.021       1.021       1.020       1.020       1.020       1.020       1.020       1.019    
      751..    1.019       1.019       1.019       1.019       1.018       1.018       1.018       1.018       1.018       1.017    
      761..    1.017       1.017       1.017       1.016       1.016       1.016       1.016       1.015       1.015       1.015    
      771..    1.015       1.014       1.014       1.014       1.013       1.013       1.013       1.012       1.012       1.012    
      781..    1.011       1.011       1.011       1.010       1.010       1.009       1.009       1.008       1.008       1.007    
      791..    1.007       1.006       1.006       1.005       1.004       1.004       1.003       1.002       1.001       1.000    
1
             HEADU IN LAYER      11 AT END OF TIME STEP     500 IN STRESS PERIOD       2 STRESS TIME   0.500000     TOTAL TIME    1.50000    
  -----------------------------------------------------------------------------------------------------------------------------------------
      801..    1.025       1.024       1.024       1.024       1.024       1.024       1.024       1.023       1.023       1.023    
      811..    1.023       1.023       1.023       1.022       1.022       1.022       1.022       1.022       1.022       1.021    
      821..    1.021       1.021       1.021       1.021       1.020       1.020       1.020       1.020       1.020       1.019    
      831..    1.019       1.019       1.019       1.019       1.018       1.018       1.018       1.018       1.018       1.017    
      841..    1.017       1.017       1.017       1.016       1.016       1.016       1.016       1.015       1.015       1.015    
      851..    1.015       1.014       1.014       1.014       1.013       1.013       1.013       1.012       1.012       1.012    
      861..    1.011       1.011       1.011       1.010       1.010       1.009       1.009       1.008       1.008       1.007    
      871..    1.007       1.006       1.005       1.005       1.004       1.003       1.003       1.002       1.001       1.000    
1
             HEADU IN LAYER      12 AT END OF TIME STEP     500 IN STRESS PERIOD       2 STRESS TIME   0.500000     TOTAL TIME    1.50000    
  -----------------------------------------------------------------------------------------------------------------------------------------
      881..    1.025       1.024       1.024       1.024       1.024       1.024       1.024       1.023       1.023       1.023    
      891..    1.023       1.023       1.023       1.022       1.022       1.022       1.022       1.022       1.022       1.021    
      901..    1.021       1.021       1.021       1.021       1.020       1.020       1.020       1.020       1.020       1.020    
      911..    1.019       1.019       1.019       1.019       1.019       1.018       1.018       1.018       1.018       1.017    
      921..    1.017       1.017       1.017       1.016       1.016       1.016       1.016       1.015       1.015       1.015    
      931..    1.015       1.014       1.014       1.014       1.013       1.013       1.013       1.012       1.012       1.012    
      941..    1.011       1.011       1.011       1.010       1.010       1.009       1.009       1.008       1.008       1.007    
      951..    1.007       1.006       1.005       1.005       1.004       1.003       1.002       1.002       1.001       1.000    
1
             HEADU IN LAYER      13 AT END OF TIME STEP     500 IN STRESS PERIOD       2 STRESS TIME   0.500000     TOTAL TIME    1.50000    
  -----------------------------------------------------------------------------------------------------------------------------------------
      961..    1.025       1.024       1.024       1.024       1.024       1.024       1.024       1.023       1.023       1.023    
      971..    1.023       1.023       1.023       1.022       1.022       1.022       1.022       1.022       1.022       1.021    
      981..    1.021       1.021       1.021       1.021       1.020       1.020       1.020       1.020       1.020       1.020    
      991..    1.019       1.019       1.019       1.019       1.019       1.018       1.018       1.018       1.018       1.017    
     1001..    1.017       1.017       1.017       1.017       1.016       1.016       1.016       1.016       1.015       1.015    
     1011..    1.015       1.014       1.014       1.014       1.013       1.013       1.013       1.012       1.012       1.012    
     1021..    1.011       1.011       1.010       1.010       1.010       1.009       1.009       1.008       1.008       1.007    
     1031..    1.006       1.006       1.005       1.004       1.004       1.003       1.002       1.001       1.001       1.000    
1
             HEADU IN LAYER      14 AT END OF TIME STEP     500 IN STRESS PERIOD       2 STRESS TIME   0.500000     TOTAL TIME    1.50000    
  -----------------------------------------------------------------------------------------------------------------------------------------
     1041..    1.025       1.024       1.024       1.024       1.024       1.024       1.024       1.023       1.023       1.023    
     1051..    1.023       1.023       1.023       1.022       1.022       1.022       1.022       1.022       1.022       1.021    
     1061..    1.021       1.021       1.021       1.021       1.021       1.020       1.020       1.020       1.020       1.020    
     1071..    1.019       1.019       1.019       1.019       1.019       1.018       1.018       1.018       1.018       1.018    
     1081..    1.017       1.017       1.017       1.017       1.016       1.016       1.016       1.016       1.015       1.015    
     1091..    1.015       1.014       1.014       1.014       1.013       1.013       1.013       1.012       1.012       1.012    
     1101..    1.011       1.011       1.010       1.010       1.010       1.009       1.009       1.008       1.007       1.007    
     1111..    1.006       1.006       1.005       1.004       1.004       1.003       1.002       1.001       1.001       1.000    
1
             HEADU IN LAYER      15 AT END OF TIME STEP     500 IN STRESS PERIOD       2 STRESS TIME   0.500000     TOTAL TIME    1.50000    
  -----------------------------------------------------------------------------------------------------------------------------------------
     1121..    1.025       1.024       1.024       1.024       1.024       1.024       1.024       1.023       1.023       1.023    
     1131..    1.023       1.023       1.023       1.022       1.022       1.022       1.022       1.022       1.022       1.021    
     1141..    1.021       1.021       1.021       1.021       1.021       1.020       1.020       1.020       1.020       1.020    
     1151..    1.019       1.019       1.019       1.019       1.019       1.018       1.018       1.018       1.018       1.018    
     1161..    1.017       1.017       1.017       1.017       1.016       1.016       1.016       1.016       1.015       1.015    
     1171..    1.015       1.014       1.014       1.014       1.013       1.013       1.013       1.012       1.012       1.012    
     1181..    1.011       1.011       1.010       1.010       1.009       1.009       1.008       1.008       1.007       1.007    
     1191..    1.006       1.005       1.005       1.004       1.003       1.003       1.002       1.001       1.000       1.000    
1
             HEADU IN LAYER      16 AT END OF TIME STEP     500 IN STRESS PERIOD       2 STRESS TIME   0.500000     TOTAL TIME    1.50000    
  -----------------------------------------------------------------------------------------------------------------------------------------
     1201..    1.025       1.024       1.024       1.024       1.024       1.024       1.024       1.023       1.023       1.023    
     1211..    1.023       1.023       1.023       1.022       1.022       1.022       1.022       1.022       1.022       1.021    
     1221..    1.021       1.021       1.021       1.021       1.021       1.020       1.020       1.020       1.020       1.020    
     1231..    1.019       1.019       1.019       1.019       1.019       1.018       1.018       1.018       1.018       1.018    
     1241..    1.017       1.017       1.017       1.017       1.016       1.016       1.016       1.016       1.015       1.015    
     1251..    1.015       1.014       1.014       1.014       1.013       1.013       1.013       1.012       1.012       1.012    
     1261..    1.011       1.011       1.010       1.010       1.009       1.009       1.008       1.007       1.007       1.006    
     1271..    1.006       1.005       1.004       1.004       1.003       1.002       1.002       1.001       1.000      0.9999    
1
             HEADU IN LAYER      17 AT END OF TIME STEP     500 IN STRESS PERIOD       2 STRESS TIME   0.500000     TOTAL TIME    1.50000    
  -----------------------------------------------------------------------------------------------------------------------------------------
     1281..    1.025       1.024       1.024       1.024       1.024       1.024       1.024       1.024       1.023       1.023    
     1291..    1.023       1.023       1.023       1.022       1.022       1.022       1.022       1.022       1.022       1.021    
     1301..    1.021       1.021       1.021       1.021       1.021       1.020       1.020       1.020       1.020       1.020    
     1311..    1.019       1.019       1.019       1.019       1.019       1.019       1.018       1.018       1.018       1.018    
     1321..    1.017       1.017       1.017       1.017       1.016       1.016       1.016       1.016       1.015       1.015    
     1331..    1.015       1.014       1.014       1.014       1.013       1.013       1.013       1.012       1.012       1.011    
     1341..    1.011       1.010       1.010       1.009       1.009       1.008       1.008       1.007       1.007       1.006    
     1351..    1.005       1.005       1.004       1.003       1.003       1.002       1.001       1.001       1.000      0.9999    
1
             HEADU IN LAYER      18 AT END OF TIME STEP     500 IN STRESS PERIOD       2 STRESS TIME   0.500000     TOTAL TIME    1.50000    
  -----------------------------------------------------------------------------------------------------------------------------------------
     1361..    1.025       1.025       1.024       1.024       1.024       1.024       1.024       1.024       1.023       1.023    
     1371..    1.023       1.023       1.023       1.023       1.022       1.022       1.022       1.022       1.022       1.021    
     1381..    1.021       1.021       1.021       1.021       1.021       1.020       1.020       1.020       1.020       1.020    
     1391..    1.020       1.019       1.019       1.019       1.019       1.019       1.018       1.018       1.018       1.018    
     1401..    1.017       1.017       1.017       1.017       1.016       1.016       1.016       1.016       1.015       1.015    
     1411..    1.015       1.014       1.014       1.014       1.013       1.013       1.012       1.012       1.012       1.011    
     1421..    1.011       1.010       1.010       1.009       1.009       1.008       1.007       1.007       1.006       1.006    
     1431..    1.005       1.004       1.004       1.003       1.002       1.002       1.001       1.001       1.000       1.000    
1
             HEADU IN LAYER      19 AT END OF TIME STEP     500 IN STRESS PERIOD       2 STRESS TIME   0.500000     TOTAL TIME    1.50000    
  -----------------------------------------------------------------------------------------------------------------------------------------
     1441..    1.025       1.025       1.024       1.024       1.024       1.024       1.024       1.024       1.023       1.023    
     1451..    1.023       1.023       1.023       1.023       1.022       1.022       1.022       1.022       1.022       1.022    
     1461..    1.021       1.021       1.021       1.021       1.021       1.020       1.020       1.020       1.020       1.020    
     1471..    1.020       1.019       1.019       1.019       1.019       1.019       1.018       1.018       1.018       1.018    
     1481..    1.018       1.017       1.017       1.017       1.017       1.016       1.016       1.016       1.015       1.015    
     1491..    1.015       1.014       1.014       1.014       1.013       1.013       1.012       1.012       1.011       1.011    
     1501..    1.010       1.010       1.009       1.009       1.008       1.008       1.007       1.006       1.006       1.005    
     1511..    1.004       1.004       1.003       1.003       1.002       1.001       1.001       1.000       1.000       1.000    
1
             HEADU IN LAYER      20 AT END OF TIME STEP     500 IN STRESS PERIOD       2 STRESS TIME   0.500000     TOTAL TIME    1.50000    
  -----------------------------------------------------------------------------------------------------------------------------------------
     1521..    1.025       1.025       1.024       1.024       1.024       1.024       1.024       1.024       1.023       1.023    
     1531..    1.023       1.023       1.023       1.023       1.022       1.022       1.022       1.022       1.022       1.022    
     1541..    1.021       1.021       1.021       1.021       1.021       1.021       1.020       1.020       1.020       1.020    
     1551..    1.020       1.019       1.019       1.019       1.019       1.019       1.018       1.018       1.018       1.018    
     1561..    1.018       1.017       1.017       1.017       1.017       1.016       1.016       1.016       1.015       1.015    
     1571..    1.015       1.014       1.014       1.013       1.013       1.013       1.012       1.012       1.011       1.011    
     1581..    1.010       1.010       1.009       1.008       1.008       1.007       1.007       1.006       1.005       1.005    
     1591..    1.004       1.003       1.003       1.002       1.002       1.001       1.001       1.000       1.000       1.000    
1
             HEADU IN LAYER      21 AT END OF TIME STEP     500 IN STRESS PERIOD       2 STRESS TIME   0.500000     TOTAL TIME    1.50000    
  -----------------------------------------------------------------------------------------------------------------------------------------
     1601..    1.025       1.025       1.024       1.024       1.024       1.024       1.024       1.024       1.023       1.023    
     1611..    1.023       1.023       1.023       1.023       1.022       1.022       1.022       1.022       1.022       1.022    
     1621..    1.021       1.021       1.021       1.021       1.021       1.021       1.020       1.020       1.020       1.020    
     1631..    1.020       1.019       1.019       1.019       1.019       1.019       1.018       1.018       1.018       1.018    
     1641..    1.018       1.017       1.017       1.017       1.016       1.016       1.016       1.016       1.015       1.015    
     1651..    1.014       1.014       1.014       1.013       1.013       1.012       1.012       1.011       1.011       1.010    
     1661..    1.010       1.009       1.008       1.008       1.007       1.007       1.006       1.005       1.005       1.004    
     1671..    1.004       1.003       1.002       1.002       1.001       1.001       1.001       1.000       1.000       1.000    
1
             HEADU IN LAYER      22 AT END OF TIME STEP     500 IN STRESS PERIOD       2 STRESS TIME   0.500000     TOTAL TIME    1.50000    
  -----------------------------------------------------------------------------------------------------------------------------------------
     1681..    1.025       1.025       1.024       1.024       1.024       1.024       1.024       1.024       1.023       1.023    
     1691..    1.023       1.023       1.023       1.023       1.022       1.022       1.022       1.022       1.022       1.022    
     1701..    1.021       1.021       1.021       1.021       1.021       1.021       1.020       1.020       1.020       1.020    
     1711..    1.020       1.020       1.019       1.019       1.019       1.019       1.019       1.018       1.018       1.018    
     1721..    1.018       1.017       1.017       1.017       1.016       1.016       1.016       1.015       1.015       1.015    
     1731..    1.014       1.014       1.013       1.013       1.012       1.012       1.011       1.011       1.010       1.010    
     1741..    1.009       1.009       1.008       1.007       1.007       1.006       1.006       1.005       1.004       1.004    
     1751..    1.003       1.003       1.002       1.002       1.001       1.001       1.000       1.000       1.000       1.000    
1
             HEADU IN LAYER      23 AT END OF TIME STEP     500 IN STRESS PERIOD       2 STRESS TIME   0.500000     TOTAL TIME    1.50000    
  -----------------------------------------------------------------------------------------------------------------------------------------
     1761..    1.025       1.025       1.024       1.024       1.024       1.024       1.024       1.024       1.023       1.023    
     1771..    1.023       1.023       1.023       1.023       1.022       1.022       1.022       1.022       1.022       1.022    
     1781..    1.021       1.021       1.021       1.021       1.021       1.021       1.020       1.020       1.020       1.020    
     1791..    1.020       1.020       1.019       1.019       1.019       1.019       1.019       1.018       1.018       1.018    
     1801..    1.018       1.017       1.017       1.017       1.016       1.016       1.016       1.015       1.015       1.014    
     1811..    1.014       1.014       1.013       1.013       1.012       1.012       1.011       1.010       1.010       1.009    
     1821..    1.009       1.008       1.007       1.007       1.006       1.006       1.005       1.004       1.004       1.003    
     1831..    1.003       1.002       1.002       1.001       1.001       1.001       1.000       1.000       1.000       1.000    
1
             HEADU IN LAYER      24 AT END OF TIME STEP     500 IN STRESS PERIOD       2 STRESS TIME   0.500000     TOTAL TIME    1.50000    
  -----------------------------------------------------------------------------------------------------------------------------------------
     1841..    1.025       1.025       1.024       1.024       1.024       1.024       1.024       1.024       1.023       1.023    
     1851..    1.023       1.023       1.023       1.023       1.022       1.022       1.022       1.022       1.022       1.022    
     1861..    1.021       1.021       1.021       1.021       1.021       1.021       1.020       1.020       1.020       1.020    
     1871..    1.020       1.020       1.019       1.019       1.019       1.019       1.019       1.018       1.018       1.018    
     1881..    1.018       1.017       1.017       1.017       1.016       1.016       1.016       1.015       1.015       1.014    
     1891..    1.014       1.013       1.013       1.012       1.012       1.011       1.011       1.010       1.009       1.009    
     1901..    1.008       1.007       1.007       1.006       1.006       1.005       1.004       1.004       1.003       1.003    
     1911..    1.002       1.002       1.001       1.001       1.001       1.000       1.000       1.000       1.000       1.000    
1
             HEADU IN LAYER      25 AT END OF TIME STEP     500 IN STRESS PERIOD       2 STRESS TIME   0.500000     TOTAL TIME    1.50000    
  -----------------------------------------------------------------------------------------------------------------------------------------
     1921..    1.025       1.025       1.024       1.024       1.024       1.024       1.024       1.024       1.023       1.023    
     1931..    1.023       1.023       1.023       1.023       1.022       1.022       1.022       1.022       1.022       1.022    
     1941..    1.021       1.021       1.021       1.021       1.021       1.021       1.021       1.020       1.020       1.020    
     1951..    1.020       1.020       1.019       1.019       1.019       1.019       1.019       1.018       1.018       1.018    
     1961..    1.018       1.017       1.017       1.017       1.016       1.016       1.015       1.015       1.014       1.014    
     1971..    1.013       1.013       1.012       1.012       1.011       1.011       1.010       1.009       1.009       1.008    
     1981..    1.007       1.007       1.006       1.006       1.005       1.004       1.004       1.003       1.003       1.002    
     1991..    1.002       1.001       1.001       1.001       1.000       1.000       1.000       1.000       1.000       1.000    
1
             HEADU IN LAYER      26 AT END OF TIME STEP     500 IN STRESS PERIOD       2 STRESS TIME   0.500000     TOTAL TIME    1.50000    
  -----------------------------------------------------------------------------------------------------------------------------------------
     2001..    1.025       1.025       1.024       1.024       1.024       1.024       1.024       1.024       1.023       1.023    
     2011..    1.023       1.023       1.023       1.023       1.022       1.022       1.022       1.022       1.022       1.022    
     2021..    1.022       1.021       1.021       1.021       1.021       1.021       1.021       1.020       1.020       1.020    
     2031..    1.020       1.020       1.020       1.019       1.019       1.019       1.019       1.018       1.018       1.018    
     2041..    1.017       1.017       1.017       1.016       1.016       1.015       1.015       1.015       1.014       1.013    
     2051..    1.013       1.012       1.012       1.011       1.011       1.010       1.009       1.009       1.008       1.007    
     2061..    1.007       1.006       1.006       1.005       1.004       1.004       1.003       1.003       1.002       1.002    
     2071..    1.001       1.001       1.001       1.001       1.000       1.000       1.000       1.000      0.9999       1.000    
1
             HEADU IN LAYER      27 AT END OF TIME STEP     500 IN STRESS PERIOD       2 STRESS TIME   0.500000     TOTAL TIME    1.50000    
  -----------------------------------------------------------------------------------------------------------------------------------------
     2081..    1.025       1.025       1.024       1.024       1.024       1.024       1.024       1.024       1.023       1.023    
     2091..    1.023       1.023       1.023       1.023       1.022       1.022       1.022       1.022       1.022       1.022    
     2101..    1.022       1.021       1.021       1.021       1.021       1.021       1.021       1.020       1.020       1.020    
     2111..    1.020       1.020       1.020       1.019       1.019       1.019       1.019       1.018       1.018       1.018    
     2121..    1.017       1.017       1.017       1.016       1.016       1.015       1.015       1.014       1.014       1.013    
     2131..    1.012       1.012       1.011       1.011       1.010       1.009       1.009       1.008       1.007       1.007    
     2141..    1.006       1.006       1.005       1.004       1.004       1.003       1.003       1.002       1.002       1.001    
     2151..    1.001       1.001       1.001       1.000       1.000       1.000       1.000      0.9999      0.9999       1.000    
1
             HEADU IN LAYER      28 AT END OF TIME STEP     500 IN STRESS PERIOD       2 STRESS TIME   0.500000     TOTAL TIME    1.50000    
  -----------------------------------------------------------------------------------------------------------------------------------------
     2161..    1.025       1.025       1.024       1.024       1.024       1.024       1.024       1.024       1.023       1.023    
     2171..    1.023       1.023       1.023       1.023       1.023       1.022       1.022       1.022       1.022       1.022    
     2181..    1.022       1.021       1.021       1.021       1.021       1.021       1.021       1.020       1.020       1.020    
     2191..    1.020       1.020       1.020       1.019       1.019       1.019       1.019       1.018       1.018       1.018    
     2201..    1.017       1.017       1.016       1.016       1.015       1.015       1.014       1.014       1.013       1.012    
     2211..    1.012       1.011       1.011       1.010       1.009       1.009       1.008       1.007       1.007       1.006    
     2221..    1.005       1.005       1.004       1.004       1.003       1.003       1.002       1.002       1.001       1.001    
     2231..    1.001       1.001       1.000       1.000       1.000       1.000      0.9999      0.9999      0.9999       1.000    
1
             HEADU IN LAYER      29 AT END OF TIME STEP     500 IN STRESS PERIOD       2 STRESS TIME   0.500000     TOTAL TIME    1.50000    
  -----------------------------------------------------------------------------------------------------------------------------------------
     2241..    1.025       1.025       1.024       1.024       1.024       1.024       1.024       1.024       1.023       1.023    
     2251..    1.023       1.023       1.023       1.023       1.023       1.022       1.022       1.022       1.022       1.022    
     2261..    1.022       1.021       1.021       1.021       1.021       1.021       1.021       1.021       1.020       1.020    
     2271..    1.020       1.020       1.020       1.019       1.019       1.019       1.019       1.018       1.018       1.017    
     2281..    1.017       1.017       1.016       1.016       1.015       1.014       1.014       1.013       1.013       1.012    
     2291..    1.011       1.011       1.010       1.009       1.009       1.008       1.007       1.007       1.006       1.005    
     2301..    1.005       1.004       1.004       1.003       1.003       1.002       1.002       1.001       1.001       1.001    
     2311..    1.001       1.000       1.000       1.000       1.000      0.9999      0.9999      0.9999      0.9999       1.000    
1
             HEADU IN LAYER      30 AT END OF TIME STEP     500 IN STRESS PERIOD       2 STRESS TIME   0.500000     TOTAL TIME    1.50000    
  -----------------------------------------------------------------------------------------------------------------------------------------
     2321..    1.025       1.025       1.024       1.024       1.024       1.024       1.024       1.024       1.023       1.023    
     2331..    1.023       1.023       1.023       1.023       1.023       1.022       1.022       1.022       1.022       1.022    
     2341..    1.022       1.021       1.021       1.021       1.021       1.021       1.021       1.021       1.020       1.020    
     2351..    1.020       1.020       1.020       1.019       1.019       1.019       1.019       1.018       1.018       1.017    
     2361..    1.017       1.016       1.016       1.015       1.015       1.014       1.013       1.013       1.012       1.011    
     2371..    1.010       1.010       1.009       1.008       1.008       1.007       1.006       1.006       1.005       1.005    
     2381..    1.004       1.003       1.003       1.003       1.002       1.002       1.001       1.001       1.001       1.001    
     2391..    1.000       1.000       1.000      0.9999      0.9999      0.9999      0.9998      0.9999      0.9999       1.000    
1
             HEADU IN LAYER      31 AT END OF TIME STEP     500 IN STRESS PERIOD       2 STRESS TIME   0.500000     TOTAL TIME    1.50000    
  -----------------------------------------------------------------------------------------------------------------------------------------
     2401..    1.025       1.025       1.024       1.024       1.024       1.024       1.024       1.024       1.023       1.023    
     2411..    1.023       1.023       1.023       1.023       1.023       1.022       1.022       1.022       1.022       1.022    
     2421..    1.022       1.021       1.021       1.021       1.021       1.021       1.021       1.021       1.020       1.020    
     2431..    1.020       1.020       1.020       1.019       1.019       1.019       1.018       1.018       1.018       1.017    
     2441..    1.017       1.016       1.015       1.015       1.014       1.013       1.013       1.012       1.011       1.010    
     2451..    1.010       1.009       1.008       1.008       1.007       1.006       1.006       1.005       1.004       1.004    
     2461..    1.003       1.003       1.002       1.002       1.002       1.001       1.001       1.001       1.000       1.000    
     2471..    1.000       1.000      0.9999      0.9999      0.9998      0.9998      0.9998      0.9998      0.9999       1.000    
1
             HEADU IN LAYER      32 AT END OF TIME STEP     500 IN STRESS PERIOD       2 STRESS TIME   0.500000     TOTAL TIME    1.50000    
  -----------------------------------------------------------------------------------------------------------------------------------------
     2481..    1.025       1.025       1.024       1.024       1.024       1.024       1.024       1.024       1.024       1.023    
     2491..    1.023       1.023       1.023       1.023       1.023       1.022       1.022       1.022       1.022       1.022    
     2501..    1.022       1.022       1.021       1.021       1.021       1.021       1.021       1.021       1.020       1.020    
     2511..    1.020       1.020       1.020       1.019       1.019       1.019       1.018       1.018       1.017       1.017    
     2521..    1.016       1.015       1.015       1.014       1.013       1.013       1.012       1.011       1.010       1.010    
     2531..    1.009       1.008       1.007       1.007       1.006       1.005       1.005       1.004       1.004       1.003    
     2541..    1.003       1.002       1.002       1.002       1.001       1.001       1.001       1.000       1.000       1.000    
     2551..    1.000      0.9999      0.9998      0.9998      0.9998      0.9998      0.9998      0.9998      0.9999       1.000    
1
             HEADU IN LAYER      33 AT END OF TIME STEP     500 IN STRESS PERIOD       2 STRESS TIME   0.500000     TOTAL TIME    1.50000    
  -----------------------------------------------------------------------------------------------------------------------------------------
     2561..    1.025       1.025       1.024       1.024       1.024       1.024       1.024       1.024       1.024       1.023    
     2571..    1.023       1.023       1.023       1.023       1.023       1.022       1.022       1.022       1.022       1.022    
     2581..    1.022       1.022       1.021       1.021       1.021       1.021       1.021       1.021       1.020       1.020    
     2591..    1.020       1.020       1.020       1.019       1.019       1.019       1.018       1.018       1.017       1.016    
     2601..    1.016       1.015       1.014       1.013       1.013       1.012       1.011       1.010       1.009       1.009    
     2611..    1.008       1.007       1.007       1.006       1.005       1.005       1.004       1.004       1.003       1.003    
     2621..    1.002       1.002       1.001       1.001       1.001       1.001       1.000       1.000       1.000      0.9999    
     2631..   0.9998      0.9998      0.9997      0.9997      0.9997      0.9997      0.9998      0.9998      0.9999      0.9999    
1
             HEADU IN LAYER      34 AT END OF TIME STEP     500 IN STRESS PERIOD       2 STRESS TIME   0.500000     TOTAL TIME    1.50000    
  -----------------------------------------------------------------------------------------------------------------------------------------
     2641..    1.025       1.025       1.024       1.024       1.024       1.024       1.024       1.024       1.024       1.023    
     2651..    1.023       1.023       1.023       1.023       1.023       1.022       1.022       1.022       1.022       1.022    
     2661..    1.022       1.022       1.021       1.021       1.021       1.021       1.021       1.021       1.021       1.020    
     2671..    1.020       1.020       1.020       1.019       1.019       1.018       1.018       1.017       1.017       1.016    
     2681..    1.015       1.014       1.014       1.013       1.012       1.011       1.010       1.009       1.009       1.008    
     2691..    1.007       1.006       1.006       1.005       1.004       1.004       1.003       1.003       1.002       1.002    
     2701..    1.002       1.001       1.001       1.001       1.001       1.000       1.000       1.000      0.9999      0.9998    
     2711..   0.9997      0.9997      0.9997      0.9997      0.9997      0.9997      0.9997      0.9998      0.9999      0.9999    
1
             HEADU IN LAYER      35 AT END OF TIME STEP     500 IN STRESS PERIOD       2 STRESS TIME   0.500000     TOTAL TIME    1.50000    
  -----------------------------------------------------------------------------------------------------------------------------------------
     2721..    1.025       1.025       1.024       1.024       1.024       1.024       1.024       1.024       1.024       1.023    
     2731..    1.023       1.023       1.023       1.023       1.023       1.022       1.022       1.022       1.022       1.022    
     2741..    1.022       1.022       1.021       1.021       1.021       1.021       1.021       1.021       1.021       1.020    
     2751..    1.020       1.020       1.020       1.019       1.019       1.018       1.018       1.017       1.016       1.015    
     2761..    1.015       1.014       1.013       1.012       1.011       1.010       1.009       1.008       1.008       1.007    
     2771..    1.006       1.006       1.005       1.004       1.004       1.003       1.003       1.002       1.002       1.002    
     2781..    1.001       1.001       1.001       1.000       1.000       1.000      0.9999      0.9998      0.9997      0.9997    
     2791..   0.9996      0.9996      0.9996      0.9996      0.9996      0.9997      0.9997      0.9998      0.9999      0.9999    
1
             HEADU IN LAYER      36 AT END OF TIME STEP     500 IN STRESS PERIOD       2 STRESS TIME   0.500000     TOTAL TIME    1.50000    
  -----------------------------------------------------------------------------------------------------------------------------------------
     2801..    1.025       1.025       1.024       1.024       1.024       1.024       1.024       1.024       1.024       1.023    
     2811..    1.023       1.023       1.023       1.023       1.023       1.022       1.022       1.022       1.022       1.022    
     2821..    1.022       1.022       1.021       1.021       1.021       1.021       1.021       1.021       1.021       1.020    
     2831..    1.020       1.020       1.020       1.019       1.019       1.018       1.017       1.017       1.016       1.015    
     2841..    1.014       1.013       1.012       1.011       1.010       1.009       1.008       1.008       1.007       1.006    
     2851..    1.005       1.005       1.004       1.004       1.003       1.003       1.002       1.002       1.001       1.001    
     2861..    1.001       1.001       1.000       1.000       1.000      0.9998      0.9997      0.9997      0.9996      0.9996    
     2871..   0.9995      0.9995      0.9995      0.9996      0.9996      0.9997      0.9997      0.9998      0.9999      0.9999    
1
             HEADU IN LAYER      37 AT END OF TIME STEP     500 IN STRESS PERIOD       2 STRESS TIME   0.500000     TOTAL TIME    1.50000    
  -----------------------------------------------------------------------------------------------------------------------------------------
     2881..    1.025       1.025       1.024       1.024       1.024       1.024       1.024       1.024       1.024       1.023    
     2891..    1.023       1.023       1.023       1.023       1.023       1.022       1.022       1.022       1.022       1.022    
     2901..    1.022       1.022       1.021       1.021       1.021       1.021       1.021       1.021       1.021       1.020    
     2911..    1.020       1.020       1.019       1.019       1.018       1.018       1.017       1.016       1.015       1.014    
     2921..    1.013       1.012       1.011       1.010       1.009       1.008       1.008       1.007       1.006       1.005    
     2931..    1.005       1.004       1.004       1.003       1.003       1.002       1.002       1.001       1.001       1.001    
     2941..    1.000       1.000       1.000      0.9999      0.9998      0.9997      0.9996      0.9995      0.9995      0.9995    
     2951..   0.9995      0.9995      0.9995      0.9995      0.9996      0.9996      0.9997      0.9998      0.9999      0.9999    
1
             HEADU IN LAYER      38 AT END OF TIME STEP     500 IN STRESS PERIOD       2 STRESS TIME   0.500000     TOTAL TIME    1.50000    
  -----------------------------------------------------------------------------------------------------------------------------------------
     2961..    1.025       1.025       1.024       1.024       1.024       1.024       1.024       1.024       1.024       1.023    
     2971..    1.023       1.023       1.023       1.023       1.023       1.022       1.022       1.022       1.022       1.022    
     2981..    1.022       1.022       1.021       1.021       1.021       1.021       1.021       1.021       1.021       1.020    
     2991..    1.020       1.020       1.019       1.019       1.018       1.018       1.017       1.016       1.015       1.014    
     3001..    1.013       1.012       1.011       1.010       1.009       1.008       1.007       1.006       1.005       1.005    
     3011..    1.004       1.004       1.003       1.003       1.002       1.002       1.001       1.001       1.001       1.000    
     3021..    1.000       1.000      0.9999      0.9998      0.9996      0.9996      0.9995      0.9994      0.9994      0.9994    
     3031..   0.9994      0.9994      0.9995      0.9995      0.9996      0.9996      0.9997      0.9998      0.9999      0.9999    
1
             HEADU IN LAYER      39 AT END OF TIME STEP     500 IN STRESS PERIOD       2 STRESS TIME   0.500000     TOTAL TIME    1.50000    
  -----------------------------------------------------------------------------------------------------------------------------------------
     3041..    1.025       1.025       1.024       1.024       1.024       1.024       1.024       1.024       1.024       1.023    
     3051..    1.023       1.023       1.023       1.023       1.023       1.022       1.022       1.022       1.022       1.022    
     3061..    1.022       1.022       1.021       1.021       1.021       1.021       1.021       1.021       1.021       1.020    
     3071..    1.020       1.020       1.019       1.019       1.018       1.017       1.016       1.015       1.014       1.013    
     3081..    1.012       1.011       1.010       1.009       1.008       1.007       1.006       1.006       1.005       1.004    
     3091..    1.004       1.003       1.003       1.002       1.002       1.001       1.001       1.001       1.001       1.000    
     3101..    1.000      0.9999      0.9998      0.9996      0.9995      0.9995      0.9994      0.9994      0.9994      0.9994    
     3111..   0.9994      0.9994      0.9994      0.9995      0.9996      0.9996      0.9997      0.9998      0.9999      0.9999    
1
             HEADU IN LAYER      40 AT END OF TIME STEP     500 IN STRESS PERIOD       2 STRESS TIME   0.500000     TOTAL TIME    1.50000    
  -----------------------------------------------------------------------------------------------------------------------------------------
     3121..    1.025       1.025       1.024       1.024       1.024       1.024       1.024       1.024       1.024       1.023    
     3131..    1.023       1.023       1.023       1.023       1.023       1.022       1.022       1.022       1.022       1.022    
     3141..    1.022       1.022       1.021       1.021       1.021       1.021       1.021       1.021       1.021       1.020    
     3151..    1.020       1.020       1.019       1.019       1.018       1.017       1.016       1.015       1.014       1.013    
     3161..    1.012       1.011       1.010       1.009       1.008       1.007       1.006       1.005       1.005       1.004    
     3171..    1.003       1.003       1.002       1.002       1.002       1.001       1.001       1.001       1.000       1.000    
     3181..    1.000      0.9998      0.9997      0.9996      0.9995      0.9994      0.9994      0.9994      0.9993      0.9993    
     3191..   0.9994      0.9994      0.9994      0.9995      0.9995      0.9996      0.9997      0.9998      0.9999      0.9999    

 HEAD WILL BE SAVED ON UNIT       51 AT END OF TIME STEP      500, STRESS PERIOD        2
1
  VOLUMETRIC BUDGET FOR ENTIRE MODEL AT END OF TIME STEP     500 IN STRESS PERIOD       2
  ---------------------------------------------------------------------------------------

     CUMULATIVE VOLUMES      L**3       RATES FOR THIS TIME STEP      L**3/T
     ------------------                 ------------------------

           IN:                                      IN:
           ---                                      ---
             STORAGE =       3.6043E-35               STORAGE =       9.9787E-35
     DENSITY STORAGE =       1.4222E-02       DENSITY STORAGE =       1.6017E-03
       CONSTANT HEAD =           0.0000         CONSTANT HEAD =           0.0000
               WELLS =           8.5530                 WELLS =           5.7020
     HEAD DEP BOUNDS =           0.7895       HEAD DEP BOUNDS =           1.9243

            TOTAL IN =           9.3567              TOTAL IN =           7.6279

          OUT:                                     OUT:
          ----                                     ----
             STORAGE =       2.0020E-34               STORAGE =       2.6678E-36
     DENSITY STORAGE =       3.7361E-04       DENSITY STORAGE =       2.8295E-04
       CONSTANT HEAD =           0.0000         CONSTANT HEAD =           0.0000
               WELLS =           0.0000                 WELLS =           0.0000
     HEAD DEP BOUNDS =           9.3564       HEAD DEP BOUNDS =           7.6276

           TOTAL OUT =           9.3567             TOTAL OUT =           7.6279

            IN - OUT =      -2.5935E-05              IN - OUT =       4.3829E-06

 PERCENT DISCREPANCY =          -0.00     PERCENT DISCREPANCY =           0.00






          TIME SUMMARY AT END OF TIME STEP       500 IN STRESS PERIOD         2
                    SECONDS     MINUTES      HOURS       DAYS        YEARS
                    -----------------------------------------------------------
   TIME STEP LENGTH  86.400      1.4400     2.40000E-02 1.00000E-03 2.73785E-06
 STRESS PERIOD TIME  43200.      720.00      12.000     0.50000     1.36893E-03
         TOTAL TIME 1.29600E+05  2160.0      36.000      1.5000     4.10678E-03
1



          TIME SUMMARY AT END OF TIME STEP       500 IN STRESS PERIOD         2
                    SECONDS     MINUTES      HOURS       DAYS        YEARS
                    -----------------------------------------------------------
   TIME STEP LENGTH  86.400      1.4400     2.40000E-02 1.00000E-03 2.73785E-06
 STRESS PERIOD TIME  43200.      720.00      12.000     0.50000     1.36893E-03
         TOTAL TIME 1.29600E+05  2160.0      36.000      1.5000     4.10678E-03
1
 ------------------------------------------------------------------------------------------------------------
 
 SOLVING FOR TRANSPORT 

          SEQUENTIAL TRANSPORT ITERATION LOOP NUMBER    1
          -----------------------------------------------

 ------------------------------------------------------------------------------------------------------------------------
     1 CALLS TO SPARSE MATRIX SOLVER PACKAGE IN TRANSPORT TIME STEP     500 STRESS PERIOD       2 SPECIES  1

 TOTAL OF       1OUTER ITERATIONS
  MAXIMUM CHANGE FOR EACH ITERATION:
   MAX. CHANGE        NODE  MAX. CHANGE        NODE  MAX. CHANGE        NODE  MAX. CHANGE        NODE  MAX. CHANGE        NODE
 ------------------------------------------------------------------------------------------------------------------------------------
  -0.26875    ,       1440
     TRANSPORT SOLUTION COMPLETE FOR COMPONENT SPECIES NUMBER    1
     ------------------------------------------------------------

 TRANSPORT SOLUTION COMPLETE FOR ALL SPECIES, SORTING OUTPUT FOR CONCENTRATIONS AND MASS BALANCE
 ----------------------------------------------------------------------------------------------------
     TRANSPORT OUTPUT FOR COMPONENT SPECIES NUMBER    1
     ------------------------------------------------------------

 CONC WILL BE SAVED ON UNIT   52 AT END OF TIME STEP      500, STRESS PERIOD        2
1
  VOLUMETRIC BUDGET FOR ENTIRE MODEL AT END OF TIME STEP     500 IN STRESS PERIOD       2
  ---------------------------------------------------------------------------------------

     CUMULATIVE VOLUMES      L**3       RATES FOR THIS TIME STEP      L**3/T
     ------------------                 ------------------------

           IN:                                      IN:
           ---                                      ---
        MASS STORAGE =          20.1751          MASS STORAGE =           2.5160
      WELL MASS FLUX =         199.5700        WELL MASS FLUX =           0.0000
       GHB MASS FLUX =          27.6323         GHB MASS FLUX =          67.3491

            TOTAL IN =         247.3774              TOTAL IN =          69.8651

          OUT:                                     OUT:
          ----                                     ----
        MASS STORAGE =           0.5327          MASS STORAGE =           0.1816
      WELL MASS FLUX =           0.0000        WELL MASS FLUX =           0.0000
       GHB MASS FLUX =         246.8447         GHB MASS FLUX =          69.6835

           TOTAL OUT =         247.3774             TOTAL OUT =          69.8651

            IN - OUT =      -1.6626E-07              IN - OUT =       3.5763E-07

 PERCENT DISCREPANCY =          -0.00     PERCENT DISCREPANCY =           0.00



          TOTAL MASS COMPUTATION FOR COMPONENT NUMBER     1

     MASS OF COMPONENTS AT THE END OF STRESS PERIOD         2 AND TIME STEP       500
     ---------------------------------------------------------------------------------------

     IN MOBILE DOMAIN

     ------------------
     COMPONENT INDEX     MASS
     ---------------     ----
              1        0.485761E+01



          TIME SUMMARY AT END OF TIME STEP       500 IN STRESS PERIOD         2
                    SECONDS     MINUTES      HOURS       DAYS        YEARS
                    -----------------------------------------------------------
   TIME STEP LENGTH  86.400      1.4400     2.40000E-02 1.00000E-03 2.73785E-06
 STRESS PERIOD TIME  43200.      720.00      12.000     0.50000     1.36893E-03
         TOTAL TIME 1.29600E+05  2160.0      36.000      1.5000     4.10678E-03
1

 Run end date and time (yyyy/mm/dd hh:mm:ss): 2024/05/13 16:30:12
 Elapsed run time:  1.670 Seconds

